@<TRIPOS>MOLECULE
NULL
  134   140     0     0     0
SMALL
USER_CHARGES

@<TRIPOS>ATOM
      1 O1          6.8710    5.0180    1.4180 O.co2     1 WP6        -0.5680
      2 C1          7.8030    5.7530    2.0700 C.2       1 WP6         1.0057
      3 O2          9.0030    5.5860    1.7550 O.co2     1 WP6        -0.5673
      4 C2          7.4440    6.7420    3.1060 C.3       1 WP6        -0.3580
      5 C3          5.9780    6.7910    3.4120 C.ar      1 WP6         0.0596
      6 C4          5.4660    5.7730    4.2560 C.ar      1 WP6        -0.3177
      7 C5          4.1230    5.6730    4.7130 C.ar      1 WP6         0.1219
      8 C6          3.1560    6.6150    4.2300 C.ar      1 WP6         0.0596
      9 C7          1.6910    6.6020    4.5460 C.3       1 WP6        -0.3580
     10 C8          0.8860    6.1910    3.3780 C.2       1 WP6         1.0057
     11 O3          1.1730    5.0480    2.7160 O.co2     1 WP6        -0.5673
     12 O4         -0.0600    6.8940    2.9560 O.co2     1 WP6        -0.5673
     13 C9          3.5730    7.6730    3.3890 C.ar      1 WP6        -0.3177
     14 C10         4.9910    7.7850    2.9680 C.ar      1 WP6         0.1219
     15 C11         5.4670    8.9830    2.1020 C.2       1 WP6        -0.4216
     16 C12         5.3550    8.8170    0.6090 C.ar      1 WP6         0.0773
     17 C13         6.5180    8.4190   -0.0950 C.ar      1 WP6        -0.1860
     18 C14         6.5680    8.2680   -1.5060 C.ar      1 WP6        -0.0353
     19 C15         7.9200    7.9720   -2.0840 C.3       1 WP6        -0.1088
     20 C16         8.4500    6.6340   -1.7550 C.2       1 WP6         0.9000
     21 O5          7.6740    5.6700   -1.2170 O.co2     1 WP6        -0.8744
     22 O6          9.6450    6.3530   -1.9950 O.co2     1 WP6        -0.8744
     23 C17         5.3670    8.4460   -2.2580 C.ar      1 WP6        -0.1531
     24 C18         5.2030    8.2470   -3.7410 C.3       1 WP6         0.0900
     25 C19         4.6640    6.8930   -4.1190 C.ar      1 WP6        -0.1531
     26 C20         5.6190    5.8660   -4.3040 C.ar      1 WP6        -0.0906
     27 C21         5.2880    4.5490   -4.7090 C.ar      1 WP6        -0.0968
     28 C22         6.4520    3.6450   -4.9800 C.3       1 WP6        -0.0979
     29 C23         7.2070    3.2590   -3.7680 C.2       1 WP6         0.9059
     30 O7          6.6520    3.3100   -2.5350 O.co2     1 WP6        -0.8750
     31 O8          8.3810    2.8390   -3.8690 O.co2     1 WP6        -0.8750
     32 C24         3.9120    4.2070   -4.8670 C.ar      1 WP6         0.0773
     33 C25         3.3960    2.8610   -5.2920 C.2       1 WP6        -0.4216
     34 C26         3.0650    1.8860   -4.1950 C.ar      1 WP6         0.1219
     35 C27         1.7540    1.6230   -3.6970 C.ar      1 WP6         0.0596
     36 C28         0.5240    2.4130   -4.0370 C.3       1 WP6        -0.3580
     37 C29         0.2190    3.4770   -3.0560 C.2       1 WP6         1.0057
     38 O9          1.0250    3.7450   -2.0010 O.co2     1 WP6        -0.5673
     39 O10        -0.8110    4.1740   -3.1930 O.co2     1 WP6        -0.5673
     40 C30         1.5750    0.5340   -2.8110 C.ar      1 WP6        -0.3177
     41 C31         2.6250   -0.3060   -2.3720 C.ar      1 WP6         0.1219
     42 C32         2.2420   -1.5510   -1.6140 C.2       1 WP6        -0.4216
     43 C33         2.1040   -1.4090   -0.1230 C.ar      1 WP6         0.0773
     44 C34         3.2200   -1.7810    0.6610 C.ar      1 WP6        -0.1860
     45 C35         3.2780   -1.6660    2.0710 C.ar      1 WP6        -0.0353
     46 C36         4.5130   -2.2220    2.7210 C.3       1 WP6        -0.1088
     47 C37         5.7630   -1.6240    2.2120 C.2       1 WP6         0.9000
     48 O11         5.9440   -0.2910    2.2410 O.co2     1 WP6        -0.8744
     49 O12         6.6720   -2.3300    1.7200 O.co2     1 WP6        -0.8744
     50 C38         2.1580   -1.0920    2.7450 C.ar      1 WP6        -0.1531
     51 C39         2.0940   -0.8010    4.2180 C.3       1 WP6         0.0900
     52 C40         2.4870    0.6070    4.5710 C.ar      1 WP6        -0.1531
     53 C41         1.5760    1.6830    4.7910 C.ar      1 WP6        -0.0353
     54 C42         0.0820    1.5940    4.7020 C.3       1 WP6        -0.1088
     55 C43        -0.4480    2.4210    3.6040 C.2       1 WP6         0.9000
     56 O13         0.0360    2.2790    2.3540 O.co2     1 WP6        -0.8744
     57 O14        -1.3330    3.2830    3.8020 O.co2     1 WP6        -0.8744
     58 C44         2.0960    2.9550    5.1410 C.ar      1 WP6        -0.1860
     59 C45         3.4730    3.2330    5.3090 C.ar      1 WP6         0.0773
     60 C46         3.8410    4.6250    5.7660 C.2       1 WP6        -0.4216
     61 C47         4.3810    2.1460    5.1240 C.ar      1 WP6        -0.0968
     62 C48         5.8590    2.2090    5.3650 C.3       1 WP6        -0.0979
     63 C49         6.6650    1.9920    4.1490 C.2       1 WP6         0.9059
     64 O15         6.4190    2.6960    3.0250 O.co2     1 WP6        -0.8750
     65 O16         7.5930    1.1530    4.1310 O.co2     1 WP6        -0.8750
     66 C50         3.8670    0.8800    4.7360 C.ar      1 WP6        -0.0906
     67 C51         0.9980   -0.8210    1.9750 C.ar      1 WP6        -0.0906
     68 C52         0.9210   -1.0140    0.5720 C.ar      1 WP6        -0.0968
     69 C53        -0.4380   -0.8740   -0.0500 C.3       1 WP6        -0.0979
     70 C54        -1.0440    0.4640    0.1000 C.2       1 WP6         0.9059
     71 O17        -0.4460    1.5550   -0.4200 O.co2     1 WP6        -0.8750
     72 O18        -2.1280    0.6180    0.7070 O.co2     1 WP6        -0.8750
     73 C55         3.9530    0.0460   -2.7610 C.ar      1 WP6         0.0596
     74 C56         5.2050   -0.6540   -2.3200 C.3       1 WP6        -0.3580
     75 C57         6.0780    0.2120   -1.5020 C.2       1 WP6         1.0057
     76 O19         5.5790    0.8760   -0.4360 O.co2     1 WP6        -0.5673
     77 O20         7.2950    0.3470   -1.7660 O.co2     1 WP6        -0.5673
     78 C58         4.1310    1.1170   -3.6720 C.ar      1 WP6        -0.3177
     79 C59         2.9550    5.2330   -4.6820 C.ar      1 WP6        -0.1860
     80 C60         3.2920    6.5730   -4.3570 C.ar      1 WP6        -0.0353
     81 C61         2.1490    7.5450   -4.3450 C.3       1 WP6        -0.1088
     82 C62         1.1330    7.2700   -3.3060 C.2       1 WP6         0.9000
     83 O21         1.4520    6.6220   -2.1650 O.co2     1 WP6        -0.8744
     84 O22        -0.0500    7.6500   -3.4540 O.co2     1 WP6        -0.8744
     85 C63         4.2210    8.8840   -1.5590 C.ar      1 WP6        -0.0906
     86 C64         4.1880    9.1040   -0.1610 C.ar      1 WP6        -0.0968
     87 C65         2.9060    9.6690    0.3670 C.3       1 WP6        -0.0979
     88 C66         1.7790    8.7340    0.1890 C.2       1 WP6         0.9059
     89 O23         1.8490    7.4790    0.6830 O.co2     1 WP6        -0.8750
     90 O24         0.7540    9.0670   -0.4480 O.co2     1 WP6        -0.8750
     91 H1          7.9831    6.4873    4.0304 H         1 WP6         0.0188
     92 H2          7.7596    7.7372    2.7598 H         1 WP6         0.0188
     93 H3          6.1556    5.0074    4.5797 H         1 WP6         0.1333
     94 H4          1.5100    5.8965    5.3703 H         1 WP6         0.0188
     95 H5          1.3833    7.6122    4.8538 H         1 WP6         0.0188
     96 H6          2.8539    8.4045    3.0510 H         1 WP6         0.1333
     97 H7          5.8574    9.8867    2.5463 H         1 WP6         0.0267
     98 H8          7.4152    8.2196    0.4721 H         1 WP6         0.1235
     99 H9          7.8504    8.0537   -3.1788 H         1 WP6        -0.0074
    100 H10         8.6274    8.7240   -1.7045 H         1 WP6        -0.0074
    101 H11         4.5102    9.0133   -4.1187 H         1 WP6        -0.0329
    102 H12         6.1859    8.3741   -4.2183 H         1 WP6        -0.0329
    103 H13         6.6586    6.0987   -4.1266 H         1 WP6         0.1339
    104 H14         6.0751    2.7295   -5.4593 H         1 WP6        -0.0116
    105 H15         7.1393    4.1617   -5.6661 H         1 WP6        -0.0116
    106 H16         3.2690    2.6061   -6.3338 H         1 WP6         0.0267
    107 H17         0.6704    2.8791   -5.0226 H         1 WP6         0.0188
    108 H18        -0.3320    1.7236   -4.0810 H         1 WP6         0.0188
    109 H19         0.5778    0.3324   -2.4487 H         1 WP6         0.1333
    110 H20         2.0757   -2.4937   -2.1141 H         1 WP6         0.0267
    111 H21         4.0849   -2.1789    0.1511 H         1 WP6         0.1235
    112 H22         4.4521   -2.0344    3.8032 H         1 WP6        -0.0074
    113 H23         4.5454   -3.3062    2.5381 H         1 WP6        -0.0074
    114 H24         1.0629   -0.9708    4.5616 H         1 WP6        -0.0329
    115 H25         2.7726   -1.4925    4.7389 H         1 WP6        -0.0329
    116 H26        -0.2031    0.5458    4.5286 H         1 WP6        -0.0074
    117 H27        -0.3530    1.9401    5.6512 H         1 WP6        -0.0074
    118 H28         1.3957    3.7638    5.2889 H         1 WP6         0.1235
    119 H29         3.9011    4.8654    6.8172 H         1 WP6         0.0267
    120 H30         6.1031    3.2015    5.7716 H         1 WP6        -0.0116
    121 H31         6.1247    1.4358    6.1009 H         1 WP6        -0.0116
    122 H32         4.5691    0.0792    4.5564 H         1 WP6         0.1339
    123 H33         0.1235   -0.4463    2.4862 H         1 WP6         0.1339
    124 H34        -0.3485   -1.0924   -1.1244 H         1 WP6        -0.0116
    125 H35        -1.1082   -1.6095    0.4190 H         1 WP6        -0.0116
    126 H36         4.9253   -1.5359   -1.7250 H         1 WP6         0.0188
    127 H37         5.7626   -0.9753   -3.2121 H         1 WP6         0.0188
    128 H38         5.1361    1.3595   -3.9842 H         1 WP6         0.1333
    129 H39         1.9105    4.9826   -4.7943 H         1 WP6         0.1235
    130 H40         2.5546    8.5530   -4.1733 H         1 WP6        -0.0074
    131 H41         1.6561    7.5106   -5.3278 H         1 WP6        -0.0074
    132 H42         3.3175    9.0614   -2.1235 H         1 WP6         0.1339
    133 H43         3.0259    9.8815    1.4396 H         1 WP6        -0.0116
    134 H44         2.6814   10.6030   -0.1690 H         1 WP6        -0.0116
@<TRIPOS>BOND
     1    1    2 1
     2    2    3 2
     3    2    4 1
     4    4    5 1
     5    5    6 ar
     6    5   14 ar
     7    6    7 ar
     8    7    8 ar
     9    7   60 2
    10    8    9 1
    11    8   13 ar
    12    9   10 1
    13   10   11 1
    14   10   12 2
    15   13   14 ar
    16   14   15 2
    17   15   16 1
    18   16   17 ar
    19   16   86 ar
    20   17   18 ar
    21   18   19 1
    22   18   23 ar
    23   19   20 1
    24   20   21 1
    25   20   22 2
    26   23   24 1
    27   23   85 ar
    28   24   25 1
    29   25   26 ar
    30   25   80 ar
    31   26   27 ar
    32   27   28 1
    33   27   32 ar
    34   28   29 1
    35   29   30 1
    36   29   31 2
    37   32   33 1
    38   32   79 ar
    39   33   34 2
    40   34   35 ar
    41   34   78 ar
    42   35   36 1
    43   35   40 ar
    44   36   37 1
    45   37   38 1
    46   37   39 2
    47   40   41 ar
    48   41   42 2
    49   41   73 ar
    50   42   43 1
    51   43   44 ar
    52   43   68 ar
    53   44   45 ar
    54   45   46 1
    55   45   50 ar
    56   46   47 1
    57   47   48 1
    58   47   49 2
    59   50   51 1
    60   50   67 ar
    61   51   52 1
    62   52   53 ar
    63   52   66 ar
    64   53   54 1
    65   53   58 ar
    66   54   55 1
    67   55   56 1
    68   55   57 2
    69   58   59 ar
    70   59   60 1
    71   59   61 ar
    72   61   62 1
    73   61   66 ar
    74   62   63 1
    75   63   64 1
    76   63   65 2
    77   67   68 ar
    78   68   69 1
    79   69   70 1
    80   70   71 1
    81   70   72 2
    82   73   74 1
    83   73   78 ar
    84   74   75 1
    85   75   76 1
    86   75   77 2
    87   79   80 ar
    88   80   81 1
    89   81   82 1
    90   82   83 1
    91   82   84 2
    92   85   86 ar
    93   86   87 1
    94   87   88 1
    95   88   89 1
    96   88   90 2
    97    4   91 1
    98    4   92 1
    99    6   93 1
   100    9   94 1
   101    9   95 1
   102   13   96 1
   103   15   97 1
   104   17   98 1
   105   19   99 1
   106   19  100 1
   107   24  101 1
   108   24  102 1
   109   26  103 1
   110   28  104 1
   111   28  105 1
   112   33  106 1
   113   36  107 1
   114   36  108 1
   115   40  109 1
   116   42  110 1
   117   44  111 1
   118   46  112 1
   119   46  113 1
   120   51  114 1
   121   51  115 1
   122   54  116 1
   123   54  117 1
   124   58  118 1
   125   60  119 1
   126   62  120 1
   127   62  121 1
   128   66  122 1
   129   67  123 1
   130   69  124 1
   131   69  125 1
   132   74  126 1
   133   74  127 1
   134   78  128 1
   135   79  129 1
   136   81  130 1
   137   81  131 1
   138   85  132 1
   139   87  133 1
   140   87  134 1
