@<TRIPOS>MOLECULE
*****
  150   156     0     0     0
SMALL
USER_CHARGES

@<TRIPOS>ATOM
      1 C1          5.0660    1.2190   -1.6430 C.ar      1 WP6         0.0876
      2 C2          5.3190   -1.2130   -0.2670 C.ar      1 WP6         0.0882
      3 C3          4.7980    0.0330   -2.3500 C.ar      1 WP6        -0.0559
      4 C4          5.1990    1.1870   -0.2310 C.ar      1 WP6        -0.1651
      5 C5          5.3200   -0.0260    0.4890 C.ar      1 WP6        -0.0559
      6 C6          4.9410   -1.1810   -1.6340 C.ar      1 WP6        -0.1651
      7 H1          5.2800    2.1230    0.3200 H         1 WP6         0.1478
      8 H2          4.8210   -2.1160   -2.1780 H         1 WP6         0.1478
      9 C7          4.5300    0.0030   -3.8580 C.3       1 WP6         0.0252
     10 H3          5.0730   -0.8540   -4.2790 H         1 WP6         0.0588
     11 H4          5.0320    0.8600   -4.3280 H         1 WP6         0.0588
     12 O1          5.2660    2.3770   -2.3810 O.3       1 WP6        -0.3201
     13 O2          5.7690   -2.3700    0.3520 O.3       1 WP6        -0.3201
     14 C8          6.3400    3.2150   -1.8750 C.3       1 WP6         0.0268
     15 H5          7.1110    2.6150   -1.3720 H         1 WP6         0.0278
     16 H6          5.9130    3.9230   -1.1550 H         1 WP6         0.0278
     17 C9          6.5930   -3.2090   -0.5040 C.3       1 WP6         0.0268
     18 H7          5.9370   -3.9160   -1.0240 H         1 WP6         0.0278
     19 H8          7.1340   -2.6090   -1.2480 H         1 WP6         0.0278
     20 C10         7.0640    4.0040   -3.0010 C.2       1 WP6         0.9136
     21 C11         7.6700   -3.9980    0.2910 C.2       1 WP6         0.9136
     22 O3          7.9580    3.3820   -3.6590 O.co2     1 WP6        -0.8812
     23 O4          8.7390   -3.3760    0.5880 O.co2     1 WP6        -0.8812
     24 O5          6.8010    5.2470   -3.0850 O.co2     1 WP6        -0.8812
     25 O6          7.4540   -5.2410    0.4630 O.co2     1 WP6        -0.8812
     26 C12         1.1100    1.2190   -5.2090 C.ar      1 WP6         0.0882
     27 C13         2.4280   -1.2130   -4.7400 C.ar      1 WP6         0.0882
     28 C14         0.3640    0.0330   -5.3300 C.ar      1 WP6        -0.0559
     29 C15         2.4000    1.1870   -4.6180 C.ar      1 WP6        -0.1651
     30 C16         3.0830   -0.0270   -4.3620 C.ar      1 WP6        -0.0559
     31 C17         1.0550   -1.1810   -5.0960 C.ar      1 WP6        -0.1651
     32 H9          2.9180    2.1220   -4.4130 H         1 WP6         0.1478
     33 H10         0.5240   -2.1160   -5.2640 H         1 WP6         0.1478
     34 C18        -1.0760    0.0030   -5.8520 C.3       1 WP6         0.0252
     35 H11        -1.1690   -0.8540   -6.5330 H         1 WP6         0.0588
     36 H12        -1.2320    0.8600   -6.5210 H         1 WP6         0.0588
     37 O7          0.5710    2.3770   -5.7510 O.3       1 WP6        -0.3201
     38 O8          3.1890   -2.3710   -4.8200 O.3       1 WP6        -0.3201
     39 C19         1.5470    3.2150   -6.4280 C.3       1 WP6         0.0268
     40 H13         2.3670    2.6150   -6.8440 H         1 WP6         0.0278
     41 H14         1.9560    3.9220   -5.6990 H         1 WP6         0.0278
     42 C20         2.8600   -3.2090   -5.9610 C.3       1 WP6         0.0268
     43 H15         2.0810   -3.9160   -5.6540 H         1 WP6         0.0278
     44 H16         2.4860   -2.6090   -6.8020 H         1 WP6         0.0278
     45 C21         0.9340    4.0040   -7.6180 C.2       1 WP6         0.9136
     46 C22         4.0860   -3.9990   -6.4970 C.2       1 WP6         0.9136
     47 O9          0.7290    5.2470   -7.4330 O.co2     1 WP6        -0.8812
     48 O10         4.1270   -5.2410   -6.2230 O.co2     1 WP6        -0.8812
     49 O11         0.8110    3.3820   -8.7210 O.co2     1 WP6        -0.8812
     50 O12         4.8780   -3.3760   -7.2740 O.co2     1 WP6        -0.8812
     51 C23        -3.9560    1.2200   -3.5660 C.ar      1 WP6         0.0882
     52 C24        -2.8910   -1.2130   -4.4730 C.ar      1 WP6         0.0882
     53 C25        -4.4340    0.0330   -2.9800 C.ar      1 WP6        -0.0559
     54 C26        -2.7990    1.1880   -4.3870 C.ar      1 WP6        -0.1651
     55 C27        -2.2360   -0.0260   -4.8510 C.ar      1 WP6        -0.0559
     56 C28        -3.8860   -1.1810   -3.4620 C.ar      1 WP6        -0.1651
     57 H17        -2.3630    2.1230   -4.7330 H         1 WP6         0.1478
     58 H18        -4.2970   -2.1160   -3.0860 H         1 WP6         0.1478
     59 C29        -5.6060    0.0030   -1.9940 C.3       1 WP6         0.0252
     60 H19        -6.2420   -0.8530   -2.2540 H         1 WP6         0.0588
     61 H20        -6.2640    0.8600   -2.1940 H         1 WP6         0.0588
     62 O13        -4.6950    2.3770   -3.3700 O.3       1 WP6        -0.3201
     63 O14        -2.5800   -2.3700   -5.1720 O.3       1 WP6        -0.3201
     64 C30        -4.7940    3.2150   -4.5530 C.3       1 WP6         0.0268
     65 H21        -4.7440    2.6150   -5.4720 H         1 WP6         0.0278
     66 H22        -3.9570    3.9230   -4.5430 H         1 WP6         0.0278
     67 C31        -3.7330   -3.2090   -5.4570 C.3       1 WP6         0.0268
     68 H23        -3.8560   -3.9160   -4.6290 H         1 WP6         0.0278
     69 H24        -4.6480   -2.6090   -5.5540 H         1 WP6         0.0278
     70 C32        -6.1300    4.0050   -4.6170 C.2       1 WP6         0.9136
     71 C33        -3.5840   -3.9980   -6.7870 C.2       1 WP6         0.9136
     72 O15        -6.0720    5.2480   -4.3470 O.co2     1 WP6        -0.8812
     73 O16        -3.3260   -5.2410   -6.6870 O.co2     1 WP6        -0.8812
     74 O17        -7.1470    3.3830   -5.0630 O.co2     1 WP6        -0.8812
     75 O18        -3.8610   -3.3760   -7.8620 O.co2     1 WP6        -0.8812
     76 C34        -5.0660    1.2190    1.6430 C.ar      1 WP6         0.0882
     77 C35        -5.3190   -1.2130    0.2670 C.ar      1 WP6         0.0882
     78 C36        -4.7980    0.0330    2.3500 C.ar      1 WP6        -0.0559
     79 C37        -5.1990    1.1870    0.2310 C.ar      1 WP6        -0.1651
     80 C38        -5.3200   -0.0260   -0.4890 C.ar      1 WP6        -0.0559
     81 C39        -4.9410   -1.1810    1.6340 C.ar      1 WP6        -0.1651
     82 H25        -5.2800    2.1230   -0.3200 H         1 WP6         0.1478
     83 H26        -4.8210   -2.1160    2.1780 H         1 WP6         0.1478
     84 C40        -4.5300    0.0030    3.8580 C.3       1 WP6         0.0252
     85 H27        -5.0730   -0.8540    4.2790 H         1 WP6         0.0588
     86 H28        -5.0320    0.8600    4.3280 H         1 WP6         0.0588
     87 O19        -5.2660    2.3770    2.3810 O.3       1 WP6        -0.3201
     88 O20        -5.7690   -2.3700   -0.3520 O.3       1 WP6        -0.3201
     89 C41        -6.3400    3.2150    1.8750 C.3       1 WP6         0.0268
     90 H29        -7.1110    2.6150    1.3720 H         1 WP6         0.0278
     91 H30        -5.9130    3.9230    1.1550 H         1 WP6         0.0278
     92 C42        -6.5930   -3.2090    0.5040 C.3       1 WP6         0.0268
     93 H31        -5.9370   -3.9160    1.0240 H         1 WP6         0.0278
     94 H32        -7.1340   -2.6090    1.2480 H         1 WP6         0.0278
     95 C43        -7.0640    4.0040    3.0010 C.2       1 WP6         0.9136
     96 C44        -7.6700   -3.9980   -0.2910 C.2       1 WP6         0.9136
     97 O21        -6.8010    5.2470    3.0850 O.co2     1 WP6        -0.8812
     98 O22        -7.4540   -5.2410   -0.4630 O.co2     1 WP6        -0.8812
     99 O23        -7.9580    3.3820    3.6590 O.co2     1 WP6        -0.8812
    100 O24        -8.7390   -3.3760   -0.5880 O.co2     1 WP6        -0.8812
    101 C45        -1.1100    1.2190    5.2090 C.ar      1 WP6         0.0882
    102 C46        -2.4280   -1.2130    4.7400 C.ar      1 WP6         0.0882
    103 C47        -0.3640    0.0330    5.3300 C.ar      1 WP6        -0.0559
    104 C48        -2.4000    1.1870    4.6180 C.ar      1 WP6        -0.1651
    105 C49        -3.0830   -0.0270    4.3620 C.ar      1 WP6        -0.0559
    106 C50        -1.0550   -1.1810    5.0960 C.ar      1 WP6        -0.1651
    107 H33        -2.9180    2.1220    4.4130 H         1 WP6         0.1478
    108 H34        -0.5240   -2.1160    5.2640 H         1 WP6         0.1478
    109 C51         1.0760    0.0030    5.8520 C.3       1 WP6         0.0252
    110 H35         1.1690   -0.8540    6.5330 H         1 WP6         0.0588
    111 H36         1.2320    0.8600    6.5210 H         1 WP6         0.0588
    112 O25        -0.5710    2.3770    5.7510 O.3       1 WP6        -0.3201
    113 O26        -3.1890   -2.3710    4.8200 O.3       1 WP6        -0.3201
    114 C52        -1.5470    3.2150    6.4280 C.3       1 WP6         0.0268
    115 H37        -2.3670    2.6150    6.8440 H         1 WP6         0.0278
    116 H38        -1.9560    3.9220    5.6990 H         1 WP6         0.0278
    117 C53        -2.8600   -3.2090    5.9610 C.3       1 WP6         0.0268
    118 H39        -2.0810   -3.9160    5.6540 H         1 WP6         0.0278
    119 H40        -2.4860   -2.6090    6.8020 H         1 WP6         0.0278
    120 C54        -0.9340    4.0040    7.6180 C.2       1 WP6         0.9136
    121 C55        -4.0860   -3.9990    6.4970 C.2       1 WP6         0.9136
    122 O27        -0.7290    5.2470    7.4330 O.co2     1 WP6        -0.8812
    123 O28        -4.1270   -5.2410    6.2230 O.co2     1 WP6        -0.8812
    124 O29        -0.8110    3.3820    8.7210 O.co2     1 WP6        -0.8812
    125 O30        -4.8780   -3.3760    7.2740 O.co2     1 WP6        -0.8812
    126 C56         3.9560    1.2200    3.5660 C.ar      1 WP6         0.0882
    127 C57         2.8910   -1.2130    4.4730 C.ar      1 WP6         0.0882
    128 C58         4.4340    0.0330    2.9800 C.ar      1 WP6        -0.0559
    129 C59         2.7990    1.1880    4.3870 C.ar      1 WP6        -0.1651
    130 C60         2.2360   -0.0260    4.8510 C.ar      1 WP6        -0.0559
    131 C61         3.8860   -1.1810    3.4620 C.ar      1 WP6        -0.1651
    132 H41         2.3630    2.1230    4.7330 H         1 WP6         0.1478
    133 H42         4.2970   -2.1160    3.0860 H         1 WP6         0.1478
    134 C62         5.6060    0.0030    1.9940 C.3       1 WP6         0.0252
    135 H43         6.2420   -0.8530    2.2540 H         1 WP6         0.0588
    136 H44         6.2640    0.8600    2.1940 H         1 WP6         0.0588
    137 O31         4.6950    2.3770    3.3700 O.3       1 WP6        -0.3201
    138 O32         2.5800   -2.3700    5.1720 O.3       1 WP6        -0.3201
    139 C63         4.7940    3.2150    4.5530 C.3       1 WP6         0.0268
    140 H45         4.7440    2.6150    5.4720 H         1 WP6         0.0278
    141 H46         3.9570    3.9230    4.5430 H         1 WP6         0.0278
    142 C64         3.7330   -3.2090    5.4570 C.3       1 WP6         0.0268
    143 H47         3.8560   -3.9160    4.6290 H         1 WP6         0.0278
    144 H48         4.6480   -2.6090    5.5540 H         1 WP6         0.0278
    145 C65         6.1300    4.0050    4.6170 C.2       1 WP6         0.9136
    146 C66         3.5840   -3.9980    6.7870 C.2       1 WP6         0.9136
    147 O33         6.0720    5.2480    4.3470 O.co2     1 WP6        -0.8812
    148 O34         3.3260   -5.2410    6.6870 O.co2     1 WP6        -0.8812
    149 O35         7.1470    3.3830    5.0630 O.co2     1 WP6        -0.8812
    150 O36         3.8610   -3.3760    7.8620 O.co2     1 WP6        -0.8812
@<TRIPOS>BOND
     1    1    4 ar
     2    1    3 ar
     3    1   12 1
     4    2    5 ar
     5    2    6 ar
     6    2   13 1
     7    3    6 ar
     8    3    9 1
     9    4    5 ar
    10    4    7 1
    11    5  134 1
    12    6    8 1
    13    9   10 1
    14    9   11 1
    15    9   30 1
    16   12   14 1
    17   13   17 1
    18   14   15 1
    19   14   16 1
    20   14   20 1
    21   17   18 1
    22   17   19 1
    23   17   21 1
    24   20   22 2
    25   20   24 1
    26   21   23 2
    27   21   25 1
    28   26   29 ar
    29   26   28 ar
    30   26   37 1
    31   27   30 ar
    32   27   31 ar
    33   27   38 1
    34   28   31 ar
    35   28   34 1
    36   29   30 ar
    37   29   32 1
    38   31   33 1
    39   34   35 1
    40   34   36 1
    41   34   55 1
    42   37   39 1
    43   38   42 1
    44   39   40 1
    45   39   41 1
    46   39   45 1
    47   42   43 1
    48   42   44 1
    49   42   46 1
    50   45   47 1
    51   45   49 2
    52   46   48 1
    53   46   50 2
    54   51   54 ar
    55   51   53 ar
    56   51   62 1
    57   52   55 ar
    58   52   56 ar
    59   52   63 1
    60   53   56 ar
    61   53   59 1
    62   54   57 1
    63   54   55 ar
    64   56   58 1
    65   59   60 1
    66   59   61 1
    67   59   80 1
    68   62   64 1
    69   63   67 1
    70   64   65 1
    71   64   66 1
    72   64   70 1
    73   67   68 1
    74   67   69 1
    75   67   71 1
    76   70   72 1
    77   70   74 2
    78   71   73 1
    79   71   75 2
    80   76   79 ar
    81   76   78 ar
    82   76   87 1
    83   77   80 ar
    84   77   81 ar
    85   77   88 1
    86   78   81 ar
    87   78   84 1
    88   79   80 ar
    89   79   82 1
    90   81   83 1
    91   84   85 1
    92   84   86 1
    93   84  105 1
    94   87   89 1
    95   88   92 1
    96   89   90 1
    97   89   91 1
    98   89   95 1
    99   92   93 1
   100   92   94 1
   101   92   96 1
   102   95   97 1
   103   95   99 2
   104   96   98 1
   105   96  100 2
   106  101  104 ar
   107  101  103 ar
   108  101  112 1
   109  102  105 ar
   110  102  106 ar
   111  102  113 1
   112  103  106 ar
   113  103  109 1
   114  104  107 1
   115  104  105 ar
   116  106  108 1
   117  109  110 1
   118  109  111 1
   119  109  130 1
   120  112  114 1
   121  113  117 1
   122  114  115 1
   123  114  116 1
   124  114  120 1
   125  117  118 1
   126  117  119 1
   127  117  121 1
   128  120  122 1
   129  120  124 2
   130  121  123 1
   131  121  125 2
   132  126  129 ar
   133  126  128 ar
   134  126  137 1
   135  127  130 ar
   136  127  131 ar
   137  127  138 1
   138  128  131 ar
   139  128  134 1
   140  129  130 ar
   141  129  132 1
   142  131  133 1
   143  134  135 1
   144  134  136 1
   145  137  139 1
   146  138  142 1
   147  139  140 1
   148  139  141 1
   149  139  145 1
   150  142  143 1
   151  142  144 1
   152  142  146 1
   153  145  147 1
   154  145  149 2
   155  146  148 1
   156  146  150 2
