@<TRIPOS>MOLECULE
*****
  147   154     0     0     0
SMALL
USER_CHARGES

@<TRIPOS>ATOM
      1 C1         10.9750    5.5010    1.3080 C.3       1 BCD         0.3012
      2 C2          9.9060    5.1810    0.2650 C.3       1 BCD         0.0946
      3 C3         10.4780    4.2580   -0.8190 C.3       1 BCD         0.0973
      4 C4         11.7570    4.8790   -1.3910 C.3       1 BCD         0.0979
      5 C5         12.7640    5.1520   -0.2770 C.3       1 BCD         0.0916
      6 C6         13.9490    5.9670   -0.8100 C.3       1 BCD         0.1271
      7 C7         12.0320    2.9690    5.8680 C.3       1 BCD         0.3019
      8 C8         10.6440    2.8510    5.3490 C.3       1 BCD         0.0946
      9 C9         10.5820    3.0340    3.8290 C.3       1 BCD         0.0973
     10 C10        11.2880    4.2600    3.4310 C.3       1 BCD         0.0979
     11 C11        12.7230    4.2310    3.9550 C.3       1 BCD         0.0916
     12 C12        13.6180    5.4270    3.6250 C.3       1 BCD         0.1271
     13 C13        15.4370   -0.9030    7.0090 C.3       1 BCD         0.3019
     14 C14        13.9860   -1.3330    6.9710 C.3       1 BCD         0.0946
     15 C15        13.2290   -0.4120    6.0090 C.3       1 BCD         0.0973
     16 C16        13.4200    0.8370    6.4600 C.3       1 BCD         0.0979
     17 C17        14.9040    1.3960    6.5700 C.3       1 BCD         0.0916
     18 C18        15.1210    2.7080    7.2130 C.3       1 BCD         0.1271
     19 C19        19.1890   -2.6270    3.6690 C.3       1 BCD         0.3019
     20 C20        18.3860   -3.6550    4.4960 C.3       1 BCD         0.0946
     21 C21        17.0510   -3.0290    4.8690 C.3       1 BCD         0.0973
     22 C22        17.2770   -1.7220    5.5910 C.3       1 BCD         0.0979
     23 C23        18.1770   -0.8010    4.7710 C.3       1 BCD         0.0916
     24 C24        18.6100    0.4400    5.6110 C.3       1 BCD         0.1271
     25 C25        19.0090   -2.3240   -1.6390 C.3       1 BCD         0.3019
     26 C26        18.6260   -3.6440   -0.9740 C.3       1 BCD         0.0946
     27 C27        18.0470   -3.4060    0.4050 C.3       1 BCD         0.0973
     28 C28        19.0390   -2.6280    1.2380 C.3       1 BCD         0.0979
     29 C29        19.3750   -1.3350    0.5150 C.3       1 BCD         0.0916
     30 C30        20.4390   -0.4790    1.2450 C.3       1 BCD         0.1271
     31 C31        16.0710    0.6360   -4.9150 C.3       1 BCD         0.3019
     32 C32        15.9370   -0.8890   -4.9720 C.3       1 BCD         0.0946
     33 C33        16.2480   -1.4830   -3.6060 C.3       1 BCD         0.0973
     34 C34        17.6280   -1.0410   -3.1730 C.3       1 BCD         0.0979
     35 C35        17.6980    0.4900   -3.1410 C.3       1 BCD         0.0916
     36 C36        19.0790    1.0360   -2.8210 C.3       1 BCD         0.1271
     37 C37        12.4440    4.2710   -3.6340 C.3       1 BCD         0.3019
     38 C38        11.9700    3.0920   -4.4930 C.3       1 BCD         0.0946
     39 C39        12.8640    1.8720   -4.2580 C.3       1 BCD         0.0973
     40 C40        14.3110    2.2530   -4.5010 C.3       1 BCD         0.0979
     41 C41        14.7340    3.4880   -3.7110 C.3       1 BCD         0.0916
     42 C42        16.0800    4.0430   -4.1520 C.3       1 BCD         0.1271
     43 O1          8.7830    4.5750    0.9070 O.3       1 BCD        -0.5827
     44 O2          9.5300    4.1210   -1.8820 O.3       1 BCD        -0.5797
     45 O3         12.2990    3.8830   -2.2790 O.3       1 BCD        -0.4440
     46 O4         12.1190    6.0460    0.6890 O.3       1 BCD        -0.4212
     47 O5         14.9100    6.0730    0.2070 O.3       1 BCD        -0.5863
     48 O6         10.1180    1.5620    5.7240 O.3       1 BCD        -0.5827
     49 O7          9.1830    3.0670    3.4190 O.3       1 BCD        -0.5797
     50 O8         11.3060    4.2870    1.9800 O.3       1 BCD        -0.4440
     51 O9         12.6520    4.1570    5.4070 O.3       1 BCD        -0.4212
     52 O10        14.8200    5.1910    3.9200 O.3       1 BCD        -0.5863
     53 O11        13.8650   -2.7020    6.5650 O.3       1 BCD        -0.5827
     54 O12        11.8260   -0.7130    6.0340 O.3       1 BCD        -0.5797
     55 O13        12.7860    1.8280    5.4320 O.3       1 BCD        -0.4440
     56 O14        15.5600    0.4280    7.4300 O.3       1 BCD        -0.4212
     57 O15        14.4940    2.7400    8.4980 O.3       1 BCD        -0.5863
     58 O16        18.1770   -4.8470    3.7430 O.3       1 BCD        -0.5827
     59 O17        16.2930   -3.9280    5.6960 O.3       1 BCD        -0.5797
     60 O18        15.9810   -1.0930    5.7140 O.3       1 BCD        -0.4440
     61 O19        19.3790   -1.4660    4.4160 O.3       1 BCD        -0.4212
     62 O20        19.3510    1.3310    4.8160 O.3       1 BCD        -0.5863
     63 O21        17.6910   -4.3430   -1.8290 O.3       1 BCD        -0.5827
     64 O22        17.7450   -4.6620    1.0130 O.3       1 BCD        -0.5797
     65 O23        18.4390   -2.3500    2.4870 O.3       1 BCD        -0.4440
     66 O24        19.9140   -1.6070   -0.7920 O.3       1 BCD        -0.4212
     67 O25        21.5790   -1.2020    1.5890 O.3       1 BCD        -0.5863
     68 O26        14.5810   -1.1880   -5.3980 O.3       1 BCD        -0.5827
     69 O27        16.1990   -2.9210   -3.6990 O.3       1 BCD        -0.5797
     70 O28        17.8390   -1.5650   -1.8540 O.3       1 BCD        -0.4440
     71 O29        17.3830    0.9750   -4.4730 O.3       1 BCD        -0.4212
     72 O30        20.0810    0.5840   -3.7220 O.3       1 BCD        -0.5863
     73 O31        10.5990    2.7730   -4.1860 O.3       1 BCD        -0.5827
     74 O32        12.4880    0.8080   -5.1540 O.3       1 BCD        -0.5797
     75 O33        15.0910    1.1530   -4.0460 O.3       1 BCD        -0.4440
     76 O34        13.7820    4.5800   -3.9470 O.3       1 BCD        -0.4212
     77 O35        16.0270    4.3850   -5.5380 O.3       1 BCD        -0.5863
     78 H1         13.2770    6.2940    4.1920 H         1 BCD         0.0687
     79 H2         13.5490    5.6400    2.5590 H         1 BCD         0.0687
     80 H3          9.0870    3.7640    1.3200 H         1 BCD         0.4354
     81 H4          9.3700    4.9960   -2.2430 H         1 BCD         0.4063
     82 H5         15.1520    5.1830    0.4720 H         1 BCD         0.3993
     83 H6         10.6730    0.8930    5.3170 H         1 BCD         0.4354
     84 H7          8.7710    3.8180    3.8520 H         1 BCD         0.4063
     85 H8         14.8570    5.0070    4.8620 H         1 BCD         0.3993
     86 H9         14.2520   -2.7810    5.6900 H         1 BCD         0.4354
     87 H10        11.5190   -0.5910    6.9350 H         1 BCD         0.4063
     88 H11        13.5570    2.5770    8.3680 H         1 BCD         0.3993
     89 H12        17.6940   -4.6080    2.9490 H         1 BCD         0.4354
     90 H13        16.8060   -4.0940    6.4900 H         1 BCD         0.4063
     91 H14        18.7900    1.6060    4.0870 H         1 BCD         0.3993
     92 H15        16.9160   -3.7840   -1.9290 H         1 BCD         0.4354
     93 H16        18.5680   -5.1480    1.1000 H         1 BCD         0.4063
     94 H17        21.9800   -1.5170    0.7750 H         1 BCD         0.3993
     95 H18        13.9840   -0.8390   -4.7320 H         1 BCD         0.4354
     96 H19        16.8430   -3.1910   -4.3580 H         1 BCD         0.4063
     97 H20        19.8110    0.8380   -4.6070 H         1 BCD         0.3993
     98 H21        10.5580    2.5330   -3.2570 H         1 BCD         0.4354
     99 H22        12.5920    1.1330   -6.0510 H         1 BCD         0.4063
    100 H23        15.7990    3.5900   -6.0250 H         1 BCD         0.3993
    101 H24        10.5660    6.2010    2.0410 H         1 BCD         0.0950
    102 H25         9.5890    6.1040   -0.2120 H         1 BCD         0.0856
    103 H26        10.6990    3.2950   -0.3700 H         1 BCD         0.1093
    104 H27        11.5360    5.8080   -1.9130 H         1 BCD         0.0608
    105 H28        13.1090    4.1990    0.2260 H         1 BCD         0.0746
    106 H29        14.4200    5.4580   -1.6990 H         1 BCD         0.0687
    107 H30        13.5960    6.9540   -1.1940 H         1 BCD         0.0687
    108 H31        12.0020    2.9820    6.9700 H         1 BCD         0.0950
    109 H32        10.0200    3.6080    5.8060 H         1 BCD         0.0856
    110 H33        11.0710    2.1660    3.3320 H         1 BCD         0.1093
    111 H34        10.7540    5.1420    3.8140 H         1 BCD         0.0608
    112 H35        13.2300    3.3420    3.5710 H         1 BCD         0.0746
    113 H36        15.9950   -1.5640    7.7090 H         1 BCD         0.0950
    114 H37        13.5510   -1.2230    7.9630 H         1 BCD         0.0856
    115 H38        13.6290   -0.5370    4.9960 H         1 BCD         0.1093
    116 H39        12.9240    1.1510    7.4310 H         1 BCD         0.0608
    117 H40        15.3630    1.3680    5.5760 H         1 BCD         0.0746
    118 H41        14.7420    3.5170    6.5590 H         1 BCD         0.0687
    119 H42        16.2160    2.8940    7.3300 H         1 BCD         0.0687
    120 H43        20.1580   -3.0380    3.3980 H         1 BCD         0.0950
    121 H44        18.9350   -3.9020    5.4050 H         1 BCD         0.0856
    122 H45        16.4900   -2.8230    3.9590 H         1 BCD         0.1093
    123 H46        17.7220   -1.9200    6.5660 H         1 BCD         0.0608
    124 H47        17.6520   -0.4420    3.8820 H         1 BCD         0.0746
    125 H48        17.7260    0.9380    6.0310 H         1 BCD         0.0687
    126 H49        19.2230    0.0920    6.4730 H         1 BCD         0.0687
    127 H50        19.5290   -2.5370   -2.5890 H         1 BCD         0.0950
    128 H51        19.5130   -4.2830   -0.8580 H         1 BCD         0.0856
    129 H52        17.1300   -2.8260    0.2910 H         1 BCD         0.1093
    130 H53        19.9480   -3.2110    1.3720 H         1 BCD         0.0608
    131 H54        18.4700   -0.7570    0.3810 H         1 BCD         0.0746
    132 H55        20.6850    0.3720    0.6380 H         1 BCD         0.0687
    133 H56        19.9610   -0.1070    2.1750 H         1 BCD         0.0687
    134 H57        15.9090    1.0450   -5.9190 H         1 BCD         0.0950
    135 H58        16.6500   -1.2780   -5.7180 H         1 BCD         0.0856
    136 H59        15.5350   -1.1230   -2.8710 H         1 BCD         0.1093
    137 H60        18.3780   -1.4500   -3.8800 H         1 BCD         0.0608
    138 H61        16.9480    0.8610   -2.4220 H         1 BCD         0.0746
    139 H62        19.0470    2.1350   -2.8580 H         1 BCD         0.0687
    140 H63        19.3560    0.7600   -1.7940 H         1 BCD         0.0687
    141 H64        11.7980    5.1470   -3.8240 H         1 BCD         0.0950
    142 H65        12.0370    3.3650   -5.5340 H         1 BCD         0.0856
    143 H66        12.7580    1.5340   -3.2110 H         1 BCD         0.1093
    144 H67        14.4730    2.4210   -5.5760 H         1 BCD         0.0608
    145 H68        14.7600    3.2440   -2.6360 H         1 BCD         0.0746
    146 H69        16.8700    3.2970   -3.9960 H         1 BCD         0.0687
    147 H70        16.3390    4.9330   -3.5580 H         1 BCD         0.0687
@<TRIPOS>BOND
     1    1    2 1
     2    1   46 1
     3    1   50 1
     4    1  101 1
     5    2    3 1
     6    2   43 1
     7    2  102 1
     8    3    4 1
     9    3   44 1
    10    3  103 1
    11    4    5 1
    12    4   45 1
    13    4  104 1
    14    5    6 1
    15    5   46 1
    16    5  105 1
    17    6   47 1
    18    6  106 1
    19    6  107 1
    20    7    8 1
    21    7   51 1
    22    7   55 1
    23    7  108 1
    24    8    9 1
    25    8   48 1
    26    8  109 1
    27    9   10 1
    28    9   49 1
    29    9  110 1
    30   10   11 1
    31   10   50 1
    32   10  111 1
    33   11   12 1
    34   11   51 1
    35   11  112 1
    36   12   52 1
    37   12   78 1
    38   12   79 1
    39   13   14 1
    40   13   56 1
    41   13   60 1
    42   13  113 1
    43   14   15 1
    44   14   53 1
    45   14  114 1
    46   15   16 1
    47   15   54 1
    48   15  115 1
    49   16   17 1
    50   16   55 1
    51   16  116 1
    52   17   18 1
    53   17   56 1
    54   17  117 1
    55   18   57 1
    56   18  118 1
    57   18  119 1
    58   19   20 1
    59   19   61 1
    60   19   65 1
    61   19  120 1
    62   20   21 1
    63   20   58 1
    64   20  121 1
    65   21   22 1
    66   21   59 1
    67   21  122 1
    68   22   23 1
    69   22   60 1
    70   22  123 1
    71   23   24 1
    72   23   61 1
    73   23  124 1
    74   24   62 1
    75   24  125 1
    76   24  126 1
    77   25   26 1
    78   25   66 1
    79   25   70 1
    80   25  127 1
    81   26   27 1
    82   26   63 1
    83   26  128 1
    84   27   28 1
    85   27   64 1
    86   27  129 1
    87   28   29 1
    88   28   65 1
    89   28  130 1
    90   29   30 1
    91   29   66 1
    92   29  131 1
    93   30   67 1
    94   30  132 1
    95   30  133 1
    96   31   32 1
    97   31   71 1
    98   31   75 1
    99   31  134 1
   100   32   33 1
   101   32   68 1
   102   32  135 1
   103   33   34 1
   104   33   69 1
   105   33  136 1
   106   34   35 1
   107   34   70 1
   108   34  137 1
   109   35   36 1
   110   35   71 1
   111   35  138 1
   112   36   72 1
   113   36  139 1
   114   36  140 1
   115   37   38 1
   116   37   45 1
   117   37   76 1
   118   37  141 1
   119   38   39 1
   120   38   73 1
   121   38  142 1
   122   39   40 1
   123   39   74 1
   124   39  143 1
   125   40   41 1
   126   40   75 1
   127   40  144 1
   128   41   42 1
   129   41   76 1
   130   41  145 1
   131   42   77 1
   132   42  146 1
   133   42  147 1
   134   43   80 1
   135   44   81 1
   136   47   82 1
   137   48   83 1
   138   49   84 1
   139   52   85 1
   140   53   86 1
   141   54   87 1
   142   57   88 1
   143   58   89 1
   144   59   90 1
   145   62   91 1
   146   63   92 1
   147   64   93 1
   148   67   94 1
   149   68   95 1
   150   69   96 1
   151   72   97 1
   152   73   98 1
   153   74   99 1
   154   77  100 1
