@<TRIPOS>MOLECULE
*****
  189   196     0     0     0
SMALL
USER_CHARGES

@<TRIPOS>ATOM
      1 C1         10.9750    5.5010    1.3080 C.3       1 H26         0.2994
      2 C2          9.9060    5.1810    0.2650 C.3       1 H26         0.0991
      3 C3         10.4780    4.2580   -0.8190 C.3       1 H26         0.0978
      4 C4         11.7570    4.8790   -1.3910 C.3       1 H26         0.1001
      5 C5         12.7640    5.1520   -0.2770 C.3       1 H26         0.1246
      6 C6         13.9490    5.9670   -0.8100 C.3       1 H26         0.1224
      7 C7         12.0320    2.9690    5.8680 C.3       1 H26         0.3002
      8 C8         10.6440    2.8510    5.3490 C.3       1 H26         0.0991
      9 C9         10.5820    3.0340    3.8290 C.3       1 H26         0.0978
     10 C10        11.2880    4.2600    3.4310 C.3       1 H26         0.1001
     11 C11        12.7230    4.2310    3.9550 C.3       1 H26         0.1246
     12 C12        13.6180    5.4270    3.6250 C.3       1 H26         0.1224
     13 C13        15.4370   -0.9030    7.0090 C.3       1 H26         0.3002
     14 C14        13.9860   -1.3330    6.9710 C.3       1 H26         0.0991
     15 C15        13.2290   -0.4120    6.0090 C.3       1 H26         0.0978
     16 C16        13.4200    0.8370    6.4600 C.3       1 H26         0.1001
     17 C17        14.9040    1.3960    6.5700 C.3       1 H26         0.1246
     18 C18        15.1210    2.7080    7.2130 C.3       1 H26         0.1224
     19 C19        19.1890   -2.6270    3.6690 C.3       1 H26         0.3002
     20 C20        18.3860   -3.6550    4.4960 C.3       1 H26         0.0991
     21 C21        17.0510   -3.0290    4.8690 C.3       1 H26         0.0978
     22 C22        17.2770   -1.7220    5.5910 C.3       1 H26         0.1001
     23 C23        18.1770   -0.8010    4.7710 C.3       1 H26         0.1246
     24 C24        18.6100    0.4400    5.6110 C.3       1 H26         0.1224
     25 C25        19.0090   -2.3240   -1.6390 C.3       1 H26         0.3002
     26 C26        18.6260   -3.6440   -0.9740 C.3       1 H26         0.0991
     27 C27        18.0470   -3.4060    0.4050 C.3       1 H26         0.0978
     28 C28        19.0390   -2.6280    1.2380 C.3       1 H26         0.1001
     29 C29        19.3750   -1.3350    0.5150 C.3       1 H26         0.1246
     30 C30        20.4390   -0.4790    1.2450 C.3       1 H26         0.1224
     31 C31        16.0710    0.6360   -4.9150 C.3       1 H26         0.3002
     32 C32        15.9370   -0.8890   -4.9720 C.3       1 H26         0.0991
     33 C33        16.2480   -1.4830   -3.6060 C.3       1 H26         0.0978
     34 C34        17.6280   -1.0410   -3.1730 C.3       1 H26         0.1001
     35 C35        17.6980    0.4900   -3.1410 C.3       1 H26         0.1246
     36 C36        19.0790    1.0360   -2.8210 C.3       1 H26         0.1224
     37 C37        12.4440    4.2710   -3.6340 C.3       1 H26         0.3002
     38 C38        11.9700    3.0920   -4.4930 C.3       1 H26         0.0991
     39 C39        12.8640    1.8720   -4.2580 C.3       1 H26         0.0978
     40 C40        14.3110    2.2530   -4.5010 C.3       1 H26         0.1001
     41 C41        14.7340    3.4880   -3.7110 C.3       1 H26         0.1246
     42 C42        16.0800    4.0430   -4.1520 C.3       1 H26         0.1224
     43 O1          8.7830    4.5750    0.9070 O.3       1 H26        -0.5857
     44 O2          9.5300    4.1210   -1.8820 O.3       1 H26        -0.4051
     45 C43         9.2920    5.4220   -2.4190 C.3       1 H26         0.1072
     46 O3         12.2990    3.8830   -2.2790 O.3       1 H26        -0.4416
     47 O4         12.1190    6.0460    0.6890 O.3       1 H26        -0.4206
     48 O5         14.9100    6.0730    0.2070 O.3       1 H26        -0.4188
     49 C44        14.9790    7.4460    0.5930 C.3       1 H26         0.1186
     50 O6         10.1180    1.5620    5.7240 O.3       1 H26        -0.5857
     51 O7          9.1830    3.0670    3.4190 O.3       1 H26        -0.4051
     52 C45         8.5700    4.1840    4.0640 C.3       1 H26         0.1072
     53 O8         11.3060    4.2870    1.9800 O.3       1 H26        -0.4416
     54 O9         12.6520    4.1570    5.4070 O.3       1 H26        -0.4206
     55 O10        14.8200    5.1910    3.9200 O.3       1 H26        -0.4188
     56 C46        15.4750    6.4460    4.1030 C.3       1 H26         0.1186
     57 O11        13.8650   -2.7020    6.5650 O.3       1 H26        -0.5857
     58 O12        11.8260   -0.7130    6.0340 O.3       1 H26        -0.4051
     59 C47        11.3690   -0.5310    7.3750 C.3       1 H26         0.1072
     60 O13        12.7860    1.8280    5.4320 O.3       1 H26        -0.4416
     61 O14        15.5600    0.4280    7.4300 O.3       1 H26        -0.4206
     62 O15        14.4940    2.7400    8.4980 O.3       1 H26        -0.4188
     63 C48        15.3890    3.3920    9.4000 C.3       1 H26         0.1186
     64 O16        18.1770   -4.8470    3.7430 O.3       1 H26        -0.5857
     65 O17        16.2930   -3.9280    5.6960 O.3       1 H26        -0.4051
     66 C49        17.0560   -4.1760    6.8770 C.3       1 H26         0.1072
     67 O18        15.9810   -1.0930    5.7140 O.3       1 H26        -0.4416
     68 O19        19.3790   -1.4660    4.4160 O.3       1 H26        -0.4206
     69 O20        19.3510    1.3310    4.8160 O.3       1 H26        -0.4188
     70 C50        20.6150    1.5270    5.4510 C.3       1 H26         0.1186
     71 O21        17.6910   -4.3430   -1.8290 O.3       1 H26        -0.5857
     72 O22        17.7450   -4.6620    1.0130 O.3       1 H26        -0.4051
     73 C51        18.9700   -5.3850    1.1430 C.3       1 H26         0.1072
     74 O23        18.4390   -2.3500    2.4870 O.3       1 H26        -0.4416
     75 O24        19.9140   -1.6070   -0.7920 O.3       1 H26        -0.4206
     76 O25        21.5790   -1.2020    1.5890 O.3       1 H26        -0.4188
     77 C52        22.5960   -0.2630    1.9420 C.3       1 H26         0.1186
     78 O26        14.5810   -1.1880   -5.3980 O.3       1 H26        -0.5857
     79 O27        16.1990   -2.9210   -3.6990 O.3       1 H26        -0.4051
     80 C53        17.1570   -3.3230   -4.6790 C.3       1 H26         0.1072
     81 O28        17.8390   -1.5650   -1.8540 O.3       1 H26        -0.4416
     82 O29        17.3830    0.9750   -4.4730 O.3       1 H26        -0.4206
     83 O30        20.0810    0.5840   -3.7220 O.3       1 H26        -0.4188
     84 C54        21.2560    1.3610   -3.4870 C.3       1 H26         0.1186
     85 O31        10.5990    2.7730   -4.1860 O.3       1 H26        -0.5857
     86 O32        12.4880    0.8080   -5.1540 O.3       1 H26        -0.4051
     87 C55        12.6420    1.2920   -6.4880 C.3       1 H26         0.1072
     88 O33        15.0910    1.1530   -4.0460 O.3       1 H26        -0.4416
     89 O34        13.7820    4.5800   -3.9470 O.3       1 H26        -0.4206
     90 O35        16.0270    4.3850   -5.5380 O.3       1 H26        -0.4188
     91 C56        16.8000    5.5720   -5.7200 C.3       1 H26         0.1186
     92 H1         13.2770    6.2940    4.1920 H         1 H26         0.0575
     93 H2         13.5490    5.6400    2.5590 H         1 H26         0.0575
     94 H3          9.0870    3.7640    1.3200 H         1 H26         0.4336
     95 H4          8.5720    5.3530   -3.2340 H         1 H26         0.0393
     96 H5         10.2280    5.8370   -2.7950 H         1 H26         0.0393
     97 H6          8.8960    6.0710   -1.6380 H         1 H26         0.0393
     98 H7         15.7190    7.5640    1.3850 H         1 H26         0.0330
     99 H8         14.0040    7.7720    0.9550 H         1 H26         0.0330
    100 H9         15.2680    8.0510   -0.2670 H         1 H26         0.0330
    101 H10        10.6730    0.8930    5.3170 H         1 H26         0.4336
    102 H11         7.5200    4.2370    3.7770 H         1 H26         0.0393
    103 H12         9.0760    5.1010    3.7620 H         1 H26         0.0393
    104 H13         8.6460    4.0650    5.1450 H         1 H26         0.0393
    105 H14        16.5200    6.2770    4.3600 H         1 H26         0.0330
    106 H15        14.9880    6.9970    4.9070 H         1 H26         0.0330
    107 H16        15.4170    7.0240    3.1800 H         1 H26         0.0330
    108 H17        14.2520   -2.7810    5.6900 H         1 H26         0.4336
    109 H18        10.3030   -0.7520    7.4290 H         1 H26         0.0393
    110 H19        11.5420    0.5000    7.6810 H         1 H26         0.0393
    111 H20        11.9140   -1.2030    8.0380 H         1 H26         0.0393
    112 H21        14.9390    3.4330   10.3920 H         1 H26         0.0330
    113 H22        15.5840    4.4050    9.0480 H         1 H26         0.0330
    114 H23        16.3260    2.8370    9.4480 H         1 H26         0.0330
    115 H24        17.6940   -4.6080    2.9490 H         1 H26         0.4336
    116 H25        16.5070   -4.8560    7.5280 H         1 H26         0.0393
    117 H26        17.2320   -3.2350    7.4000 H         1 H26         0.0393
    118 H27        18.0110   -4.6250    6.6050 H         1 H26         0.0393
    119 H28        21.2170    2.2150    4.8570 H         1 H26         0.0330
    120 H29        21.1320    0.5710    5.5340 H         1 H26         0.0330
    121 H30        20.4610    1.9440    6.4460 H         1 H26         0.0330
    122 H31        16.9160   -3.7840   -1.9290 H         1 H26         0.4336
    123 H32        18.7730   -6.3520    1.6050 H         1 H26         0.0393
    124 H33        19.6620   -4.8180    1.7660 H         1 H26         0.0393
    125 H34        19.4090   -5.5360    0.1570 H         1 H26         0.0393
    126 H35        23.5050   -0.7980    2.2180 H         1 H26         0.0330
    127 H36        22.2570    0.3370    2.7870 H         1 H26         0.0330
    128 H37        22.8000    0.3880    1.0930 H         1 H26         0.0330
    129 H38        13.9840   -0.8390   -4.7320 H         1 H26         0.4336
    130 H39        17.1450   -4.4090   -4.7750 H         1 H26         0.0393
    131 H40        18.1500   -2.9960   -4.3720 H         1 H26         0.0393
    132 H41        16.9060   -2.8710   -5.6390 H         1 H26         0.0393
    133 H42        22.0460    1.0380   -4.1640 H         1 H26         0.0330
    134 H43        21.5820    1.2230   -2.4560 H         1 H26         0.0330
    135 H44        21.0360    2.4140   -3.6610 H         1 H26         0.0330
    136 H45        10.5580    2.5330   -3.2570 H         1 H26         0.4336
    137 H46        12.3650    0.5080   -7.1930 H         1 H26         0.0393
    138 H47        13.6810    1.5790   -6.6530 H         1 H26         0.0393
    139 H48        11.9980    2.1590   -6.6370 H         1 H26         0.0393
    140 H49        16.7800    5.8610   -6.7710 H         1 H26         0.0330
    141 H50        17.8290    5.3850   -5.4140 H         1 H26         0.0330
    142 H51        16.3810    6.3750   -5.1140 H         1 H26         0.0330
    143 H52        10.5660    6.2010    2.0410 H         1 H26         0.0931
    144 H53         9.5890    6.1040   -0.2120 H         1 H26         0.0867
    145 H54        10.6990    3.2950   -0.3700 H         1 H26         0.1053
    146 H55        11.5360    5.8080   -1.9130 H         1 H26         0.0700
    147 H56        13.1090    4.1990    0.2260 H         1 H26         0.0814
    148 H57        14.4200    5.4580   -1.6990 H         1 H26         0.0575
    149 H58        13.5960    6.9540   -1.1940 H         1 H26         0.0575
    150 H59        12.0020    2.9820    6.9700 H         1 H26         0.0931
    151 H60        10.0200    3.6080    5.8060 H         1 H26         0.0867
    152 H61        11.0710    2.1660    3.3320 H         1 H26         0.1053
    153 H62        10.7540    5.1420    3.8140 H         1 H26         0.0700
    154 H63        13.2300    3.3420    3.5710 H         1 H26         0.0814
    155 H64        15.9950   -1.5640    7.7090 H         1 H26         0.0931
    156 H65        13.5510   -1.2230    7.9630 H         1 H26         0.0867
    157 H66        13.6290   -0.5370    4.9960 H         1 H26         0.1053
    158 H67        12.9240    1.1510    7.4310 H         1 H26         0.0700
    159 H68        15.3630    1.3680    5.5760 H         1 H26         0.0814
    160 H69        14.7420    3.5170    6.5590 H         1 H26         0.0575
    161 H70        16.2160    2.8940    7.3300 H         1 H26         0.0575
    162 H71        20.1580   -3.0380    3.3980 H         1 H26         0.0931
    163 H72        18.9350   -3.9020    5.4050 H         1 H26         0.0867
    164 H73        16.4900   -2.8230    3.9590 H         1 H26         0.1053
    165 H74        17.7220   -1.9200    6.5660 H         1 H26         0.0700
    166 H75        17.6520   -0.4420    3.8820 H         1 H26         0.0814
    167 H76        17.7260    0.9380    6.0310 H         1 H26         0.0575
    168 H77        19.2230    0.0920    6.4730 H         1 H26         0.0575
    169 H78        19.5290   -2.5370   -2.5890 H         1 H26         0.0931
    170 H79        19.5130   -4.2830   -0.8580 H         1 H26         0.0867
    171 H80        17.1300   -2.8260    0.2910 H         1 H26         0.1053
    172 H81        19.9480   -3.2110    1.3720 H         1 H26         0.0700
    173 H82        18.4700   -0.7570    0.3810 H         1 H26         0.0814
    174 H83        20.6850    0.3720    0.6380 H         1 H26         0.0575
    175 H84        19.9610   -0.1070    2.1750 H         1 H26         0.0575
    176 H85        15.9090    1.0450   -5.9190 H         1 H26         0.0931
    177 H86        16.6500   -1.2780   -5.7180 H         1 H26         0.0867
    178 H87        15.5350   -1.1230   -2.8710 H         1 H26         0.1053
    179 H88        18.3780   -1.4500   -3.8800 H         1 H26         0.0700
    180 H89        16.9480    0.8610   -2.4220 H         1 H26         0.0814
    181 H90        19.0470    2.1350   -2.8580 H         1 H26         0.0575
    182 H91        19.3560    0.7600   -1.7940 H         1 H26         0.0575
    183 H92        11.7980    5.1470   -3.8240 H         1 H26         0.0931
    184 H93        12.0370    3.3650   -5.5340 H         1 H26         0.0867
    185 H94        12.7580    1.5340   -3.2110 H         1 H26         0.1053
    186 H95        14.4730    2.4210   -5.5760 H         1 H26         0.0700
    187 H96        14.7600    3.2440   -2.6360 H         1 H26         0.0814
    188 H97        16.8700    3.2970   -3.9960 H         1 H26         0.0575
    189 H98        16.3390    4.9330   -3.5580 H         1 H26         0.0575
@<TRIPOS>BOND
     1    1    2 1
     2    1   47 1
     3    1   53 1
     4    1  143 1
     5    2    3 1
     6    2   43 1
     7    2  144 1
     8    3    4 1
     9    3   44 1
    10    3  145 1
    11    4    5 1
    12    4   46 1
    13    4  146 1
    14    5    6 1
    15    5   47 1
    16    5  147 1
    17    6   48 1
    18    6  148 1
    19    6  149 1
    20    7    8 1
    21    7   54 1
    22    7   60 1
    23    7  150 1
    24    8    9 1
    25    8   50 1
    26    8  151 1
    27    9   10 1
    28    9   51 1
    29    9  152 1
    30   10   11 1
    31   10   53 1
    32   10  153 1
    33   11   12 1
    34   11   54 1
    35   11  154 1
    36   12   55 1
    37   12   92 1
    38   12   93 1
    39   13   14 1
    40   13   61 1
    41   13   67 1
    42   13  155 1
    43   14   15 1
    44   14   57 1
    45   14  156 1
    46   15   16 1
    47   15   58 1
    48   15  157 1
    49   16   17 1
    50   16   60 1
    51   16  158 1
    52   17   18 1
    53   17   61 1
    54   17  159 1
    55   18   62 1
    56   18  160 1
    57   18  161 1
    58   19   20 1
    59   19   68 1
    60   19   74 1
    61   19  162 1
    62   20   21 1
    63   20   64 1
    64   20  163 1
    65   21   22 1
    66   21   65 1
    67   21  164 1
    68   22   23 1
    69   22   67 1
    70   22  165 1
    71   23   24 1
    72   23   68 1
    73   23  166 1
    74   24   69 1
    75   24  167 1
    76   24  168 1
    77   25   26 1
    78   25   75 1
    79   25   81 1
    80   25  169 1
    81   26   27 1
    82   26   71 1
    83   26  170 1
    84   27   28 1
    85   27   72 1
    86   27  171 1
    87   28   29 1
    88   28   74 1
    89   28  172 1
    90   29   30 1
    91   29   75 1
    92   29  173 1
    93   30   76 1
    94   30  174 1
    95   30  175 1
    96   31   32 1
    97   31   82 1
    98   31   88 1
    99   31  176 1
   100   32   33 1
   101   32   78 1
   102   32  177 1
   103   33   34 1
   104   33   79 1
   105   33  178 1
   106   34   35 1
   107   34   81 1
   108   34  179 1
   109   35   36 1
   110   35   82 1
   111   35  180 1
   112   36   83 1
   113   36  181 1
   114   36  182 1
   115   37   38 1
   116   37   46 1
   117   37   89 1
   118   37  183 1
   119   38   39 1
   120   38   85 1
   121   38  184 1
   122   39   40 1
   123   39   86 1
   124   39  185 1
   125   40   41 1
   126   40   88 1
   127   40  186 1
   128   41   42 1
   129   41   89 1
   130   41  187 1
   131   42   90 1
   132   42  188 1
   133   42  189 1
   134   43   94 1
   135   44   45 1
   136   45   95 1
   137   45   96 1
   138   45   97 1
   139   48   49 1
   140   49   98 1
   141   49   99 1
   142   49  100 1
   143   50  101 1
   144   51   52 1
   145   52  102 1
   146   52  103 1
   147   52  104 1
   148   55   56 1
   149   56  105 1
   150   56  106 1
   151   56  107 1
   152   57  108 1
   153   58   59 1
   154   59  109 1
   155   59  110 1
   156   59  111 1
   157   62   63 1
   158   63  112 1
   159   63  113 1
   160   63  114 1
   161   64  115 1
   162   65   66 1
   163   66  116 1
   164   66  117 1
   165   66  118 1
   166   69   70 1
   167   70  119 1
   168   70  120 1
   169   70  121 1
   170   71  122 1
   171   72   73 1
   172   73  123 1
   173   73  124 1
   174   73  125 1
   175   76   77 1
   176   77  126 1
   177   77  127 1
   178   77  128 1
   179   78  129 1
   180   79   80 1
   181   80  130 1
   182   80  131 1
   183   80  132 1
   184   83   84 1
   185   84  133 1
   186   84  134 1
   187   84  135 1
   188   85  136 1
   189   86   87 1
   190   87  137 1
   191   87  138 1
   192   87  139 1
   193   90   91 1
   194   91  140 1
   195   91  141 1
   196   91  142 1
