@<TRIPOS>MOLECULE
*****
   41    43     0     0     0
SMALL
USER_CHARGES

@<TRIPOS>ATOM
      1 C1          3.9073   -5.3871    4.8640 C.ar      1 UNL1       -0.1004
      2 C2          4.8453   -5.8427    3.9502 C.ar      1 UNL1       -0.1266
      3 C3          3.1415   -4.2547    4.5731 C.ar      1 UNL1       -0.1813
      4 C4          5.0111   -5.1688    2.7448 C.ar      1 UNL1       -0.0789
      5 C5          2.8347   -1.7486   -0.6125 C.ar      1 UNL1       -0.0748
      6 C6          1.7278   -0.9433   -0.8590 C.ar      1 UNL1       -0.1222
      7 C7          1.1308   -1.0961    1.4719 C.ar      1 UNL1       -0.1880
      8 C8          3.2926   -3.5399    3.3647 C.ar      1 UNL1        0.1523
      9 C9          2.2518   -1.9053    1.7596 C.ar      1 UNL1        0.1641
     10 C10         4.2398   -4.0319    2.4449 C.ar      1 UNL1       -0.0589
     11 C11         3.0959   -2.2352    0.6808 C.ar      1 UNL1       -0.0595
     12 C12         0.8731   -0.6194    0.1837 C.ar      1 UNL1        0.0405
     13 C13        -2.3199   -1.6772    6.9841 C.3       1 UNL1        0.0813
     14 C14        -2.4107   -2.2985    4.5744 C.3       1 UNL1        0.0792
     15 C15         0.4632   -2.3029    4.4447 C.3       1 UNL1       -0.1663
     16 C16         1.8485   -1.7166    4.1859 C.3       1 UNL1        0.2262
     17 C17        -0.2484   -1.6152    5.6031 C.3       1 UNL1        0.1165
     18 N1          2.5066   -2.3988    3.0641 N.pl3     1 UNL1       -0.5391
     19 N2         -1.5615   -2.2699    5.8217 N.4       1 UNL1       -0.6816
     20 S1          4.5550   -3.2377    0.8814 S.3       1 UNL1       -0.0192
     21 Cl1        -0.5103    0.3619   -0.1117 Cl        1 UNL1       -0.0832
     22 H1          3.7623   -5.9122    5.8035 H         1 UNL1        0.1381
     23 H2          5.4434   -6.7215    4.1716 H         1 UNL1        0.1533
     24 H3          2.4022   -3.9589    5.3140 H         1 UNL1        0.1114
     25 H4          5.7510   -5.5427    2.0398 H         1 UNL1        0.1568
     26 H5          3.4930   -1.9939   -1.4437 H         1 UNL1        0.1620
     27 H6          1.5454   -0.5825   -1.8676 H         1 UNL1        0.1653
     28 H7          0.4196   -0.8432    2.2562 H         1 UNL1        0.1245
     29 H8         -2.5221   -0.6300    6.7516 H         1 UNL1        0.1082
     30 H9         -3.2481   -2.2401    7.0994 H         1 UNL1        0.1066
     31 H10        -1.6928   -1.7677    7.8731 H         1 UNL1        0.1058
     32 H11        -2.6150   -1.2658    4.2859 H         1 UNL1        0.1077
     33 H12        -1.8466   -2.8189    3.7980 H         1 UNL1        0.1113
     34 H13        -3.3345   -2.8299    4.8113 H         1 UNL1        0.1052
     35 H14         0.5451   -3.3790    4.6439 H         1 UNL1        0.0751
     36 H15        -0.1371   -2.1927    3.5330 H         1 UNL1        0.0784
     37 H16         1.7562   -0.6530    3.9430 H         1 UNL1        0.0750
     38 H17         2.4730   -1.7971    5.0820 H         1 UNL1        0.0757
     39 H18         0.3053   -1.7020    6.5423 H         1 UNL1        0.1028
     40 H19        -0.4516   -0.5614    5.3909 H         1 UNL1        0.1061
     41 H20        -1.3849   -3.2586    6.0700 H         1 UNL1        0.4505
@<TRIPOS>BOND
     1    1    2 ar
     2    1    3 ar
     3    2    4 ar
     4    3    8 ar
     5    4   10 ar
     6    5    6 ar
     7    5   11 ar
     8    6   12 ar
     9    7    9 ar
    10    7   12 ar
    11    8   10 ar
    12    8   18 1
    13    9   11 ar
    14    9   18 1
    15   10   20 1
    16   11   20 1
    17   12   21 1
    18   13   19 1
    19   14   19 1
    20   15   16 1
    21   15   17 1
    22   16   18 1
    23   17   19 1
    24    1   22 1
    25    2   23 1
    26    3   24 1
    27    4   25 1
    28    5   26 1
    29    6   27 1
    30    7   28 1
    31   13   29 1
    32   13   30 1
    33   13   31 1
    34   14   32 1
    35   14   33 1
    36   14   34 1
    37   15   35 1
    38   15   36 1
    39   16   37 1
    40   16   38 1
    41   17   39 1
    42   17   40 1
    43   19   41 1
