@<TRIPOS>MOLECULE
*****
   41    43     0     0     0
SMALL
USER_CHARGES

@<TRIPOS>ATOM
      1 C1          3.9073   -5.3871    4.8640 C.ar      1 UNL1       -0.0947
      2 C2          0.8731   -0.6194    0.1837 C.ar      1 UNL1       -0.0979
      3 C3          4.8453   -5.8427    3.9502 C.ar      1 UNL1       -0.1274
      4 C4          1.7278   -0.9433   -0.8590 C.ar      1 UNL1       -0.1247
      5 C5          3.1415   -4.2547    4.5731 C.ar      1 UNL1       -0.1818
      6 C6          1.1308   -1.0961    1.4719 C.ar      1 UNL1       -0.1759
      7 C7          5.0111   -5.1688    2.7448 C.ar      1 UNL1       -0.0789
      8 C8          2.8347   -1.7486   -0.6125 C.ar      1 UNL1       -0.0813
      9 C9          3.2926   -3.5399    3.3647 C.ar      1 UNL1        0.1412
     10 C10         2.2518   -1.9053    1.7596 C.ar      1 UNL1        0.1409
     11 C11         4.2398   -4.0319    2.4449 C.ar      1 UNL1       -0.0676
     12 C12         3.0959   -2.2352    0.6808 C.ar      1 UNL1       -0.0692
     13 C13         2.2223   -0.4185    6.3562 C.3       1 UNL1       -0.1237
     14 C14         3.2099    1.1406    4.3098 C.3       1 UNL1        0.0839
     15 C15         5.1459   -0.1791    5.1530 C.3       1 UNL1        0.0842
     16 C16         1.8485   -1.7166    4.1859 C.3       1 UNL1        0.2097
     17 C17         2.8585   -1.1625    5.1897 C.3       1 UNL1        0.0963
     18 N1          2.5066   -2.3988    3.0641 N.pl3     1 UNL1       -0.6049
     19 N2          3.7934   -0.2367    4.4912 N.4       1 UNL1       -0.6758
     20 S1          4.5550   -3.2377    0.8814 S.3       1 UNL1       -0.0459
     21 H1          3.7624   -5.9122    5.8036 H         1 UNL1        0.1515
     22 H2         -0.0001   -0.0001   -0.0001 H         1 UNL1        0.1508
     23 H3          5.4432   -6.7214    4.1716 H         1 UNL1        0.1561
     24 H4          1.5325   -0.5749   -1.8614 H         1 UNL1        0.1569
     25 H5          2.4024   -3.9590    5.3141 H         1 UNL1        0.1317
     26 H6          0.4123   -0.8333    2.2449 H         1 UNL1        0.1373
     27 H7          5.7510   -5.5427    2.0398 H         1 UNL1        0.1603
     28 H8          3.4927   -1.9935   -1.4440 H         1 UNL1        0.1596
     29 H9          1.5979    0.4044    5.9932 H         1 UNL1        0.0658
     30 H10         1.5826   -1.0889    6.9407 H         1 UNL1        0.0934
     31 H11         2.9726   -0.0010    7.0361 H         1 UNL1        0.0639
     32 H12         3.0332    1.5616    5.3013 H         1 UNL1        0.1007
     33 H13         3.9328    1.7391    3.7522 H         1 UNL1        0.1016
     34 H14         2.2752    1.0371    3.7553 H         1 UNL1        0.1020
     35 H15         5.0077    0.2158    6.1612 H         1 UNL1        0.0994
     36 H16         5.5480   -1.1936    5.1803 H         1 UNL1        0.1066
     37 H17         5.7814    0.4792    4.5576 H         1 UNL1        0.1020
     38 H18         1.1717   -2.4218    4.6813 H         1 UNL1        0.0897
     39 H19         1.2312   -0.9016    3.7924 H         1 UNL1        0.0812
     40 H20         3.4784   -1.9808    5.5721 H         1 UNL1        0.1132
     41 H21         3.9508   -0.6121    3.5422 H         1 UNL1        0.4696
@<TRIPOS>BOND
     1    1    3 ar
     2    1    5 ar
     3    2    4 ar
     4    2    6 ar
     5    3    7 ar
     6    4    8 ar
     7    5    9 ar
     8    6   10 ar
     9    7   11 ar
    10    8   12 ar
    11    9   11 ar
    12    9   18 1
    13   10   12 ar
    14   10   18 1
    15   11   20 1
    16   12   20 1
    17   13   17 1
    18   14   19 1
    19   15   19 1
    20   16   17 1
    21   16   18 1
    22   17   19 1
    23    1   21 1
    24    2   22 1
    25    3   23 1
    26    4   24 1
    27    5   25 1
    28    6   26 1
    29    7   27 1
    30    8   28 1
    31   13   29 1
    32   13   30 1
    33   13   31 1
    34   14   32 1
    35   14   33 1
    36   14   34 1
    37   15   35 1
    38   15   36 1
    39   15   37 1
    40   16   38 1
    41   16   39 1
    42   17   40 1
    43   19   41 1
