@<TRIPOS>MOLECULE
*****
   41    43     0     0     0
SMALL
USER_CHARGES

@<TRIPOS>ATOM
      1 C1          3.9073   -5.3871    4.8640 C.ar      1 UNL1       -0.1018
      2 C2          0.8731   -0.6194    0.1837 C.ar      1 UNL1       -0.1031
      3 C3          4.8453   -5.8427    3.9502 C.ar      1 UNL1       -0.1270
      4 C4          1.7278   -0.9433   -0.8590 C.ar      1 UNL1       -0.1283
      5 C5          3.1415   -4.2547    4.5731 C.ar      1 UNL1       -0.1807
      6 C6          1.1308   -1.0961    1.4719 C.ar      1 UNL1       -0.1858
      7 C7          5.0111   -5.1688    2.7448 C.ar      1 UNL1       -0.0816
      8 C8          2.8347   -1.7486   -0.6125 C.ar      1 UNL1       -0.0804
      9 C9          3.2926   -3.5399    3.3647 C.ar      1 UNL1        0.1485
     10 C10         2.2518   -1.9053    1.7596 C.ar      1 UNL1        0.1513
     11 C11         4.2398   -4.0319    2.4449 C.ar      1 UNL1       -0.0555
     12 C12         3.0959   -2.2352    0.6808 C.ar      1 UNL1       -0.0564
     13 C13        -2.3199   -1.6772    6.9841 C.3       1 UNL1        0.0822
     14 C14        -2.4107   -2.2985    4.5744 C.3       1 UNL1        0.0796
     15 C15         0.4632   -2.3029    4.4447 C.3       1 UNL1       -0.1665
     16 C16         1.8485   -1.7166    4.1859 C.3       1 UNL1        0.2235
     17 C17        -0.2484   -1.6152    5.6031 C.3       1 UNL1        0.1156
     18 N1          2.5066   -2.3988    3.0641 N.pl3     1 UNL1       -0.5326
     19 N2         -1.5615   -2.2699    5.8217 N.4       1 UNL1       -0.6822
     20 S1          4.5550   -3.2377    0.8814 S.3       1 UNL1       -0.0289
     21 H1          3.7624   -5.9122    5.8036 H         1 UNL1        0.1384
     22 H2         -0.0001   -0.0001   -0.0001 H         1 UNL1        0.1368
     23 H3          5.4432   -6.7214    4.1716 H         1 UNL1        0.1509
     24 H4          1.5325   -0.5749   -1.8614 H         1 UNL1        0.1513
     25 H5          2.4024   -3.9590    5.3141 H         1 UNL1        0.1098
     26 H6          0.4123   -0.8333    2.2449 H         1 UNL1        0.1088
     27 H7          5.7510   -5.5427    2.0398 H         1 UNL1        0.1560
     28 H8          3.4927   -1.9935   -1.4440 H         1 UNL1        0.1561
     29 H9         -2.5221   -0.6300    6.7516 H         1 UNL1        0.1068
     30 H10        -3.2481   -2.2401    7.0994 H         1 UNL1        0.1068
     31 H11        -1.6928   -1.7677    7.8731 H         1 UNL1        0.1062
     32 H12        -2.6150   -1.2659    4.2859 H         1 UNL1        0.1057
     33 H13        -1.8466   -2.8189    3.7980 H         1 UNL1        0.1112
     34 H14        -3.3345   -2.8299    4.8113 H         1 UNL1        0.1046
     35 H15         0.5451   -3.3790    4.6439 H         1 UNL1        0.0761
     36 H16        -0.1371   -2.1927    3.5330 H         1 UNL1        0.0784
     37 H17         1.7562   -0.6530    3.9430 H         1 UNL1        0.0734
     38 H18         2.4730   -1.7971    5.0820 H         1 UNL1        0.0742
     39 H19         0.3053   -1.7020    6.5423 H         1 UNL1        0.1015
     40 H20        -0.4516   -0.5614    5.3909 H         1 UNL1        0.1050
     41 H21        -1.3849   -3.2586    6.0700 H         1 UNL1        0.4519
@<TRIPOS>BOND
     1    1    3 ar
     2    1    5 ar
     3    2    4 ar
     4    2    6 ar
     5    3    7 ar
     6    4    8 ar
     7    5    9 ar
     8    6   10 ar
     9    7   11 ar
    10    8   12 ar
    11    9   11 ar
    12    9   18 1
    13   10   12 ar
    14   10   18 1
    15   11   20 1
    16   12   20 1
    17   13   19 1
    18   14   19 1
    19   15   16 1
    20   15   17 1
    21   16   18 1
    22   17   19 1
    23    1   21 1
    24    2   22 1
    25    3   23 1
    26    4   24 1
    27    5   25 1
    28    6   26 1
    29    7   27 1
    30    8   28 1
    31   13   29 1
    32   13   30 1
    33   13   31 1
    34   14   32 1
    35   14   33 1
    36   14   34 1
    37   15   35 1
    38   15   36 1
    39   16   37 1
    40   16   38 1
    41   17   39 1
    42   17   40 1
    43   19   41 1
