@<TRIPOS>MOLECULE
*****
   52    55     0     0     0
SMALL
USER_CHARGES

@<TRIPOS>ATOM
      1 C1          2.9420    1.7293    3.2530 C.ar      1 UNL1       -0.0978
      2 C2          3.0989    2.9876    3.8140 C.ar      1 UNL1       -0.1299
      3 C3          2.0411    0.8211    3.8157 C.ar      1 UNL1       -0.1868
      4 C4          2.3498    3.3373    4.9325 C.ar      1 UNL1       -0.0776
      5 C5         -1.8938    2.1581    7.8150 C.ar      1 UNL1       -0.0890
      6 C6         -2.9796    1.2985    7.9432 C.ar      1 UNL1       -0.0866
      7 C7         -1.8789   -0.2678    6.4776 C.ar      1 UNL1       -0.1610
      8 C8          1.2739    1.1389    4.9579 C.ar      1 UNL1        0.1683
      9 C9         -0.7550    0.5754    6.3354 C.ar      1 UNL1        0.1575
     10 C10         1.4381    2.4291    5.4996 C.ar      1 UNL1       -0.0612
     11 C11        -0.7919    1.8097    7.0138 C.ar      1 UNL1       -0.0397
     12 C12        -2.9736    0.0857    7.2711 C.ar      1 UNL1       -0.0088
     13 C13         1.5660   -4.8425    2.9066 C.3       1 UNL1       -0.0997
     14 C14         0.7425   -5.1535    1.6661 C.3       1 UNL1       -0.1059
     15 C15         1.3640   -3.3974    3.3429 C.3       1 UNL1       -0.1091
     16 C16        -0.7275   -4.8369    1.8835 C.3       1 UNL1        0.1114
     17 C17        -0.1155   -3.0575    3.5639 C.3       1 UNL1        0.1437
     18 C18        -2.3576   -3.0365    2.3651 C.3       1 UNL1        0.0813
     19 C19        -4.8558   -1.1119    5.6785 C.3       1 UNL1       -0.0605
     20 C20        -0.2590   -1.5786    3.9174 C.3       1 UNL1       -0.1600
     21 C21         0.5106   -1.1965    5.1761 C.3       1 UNL1        0.2358
     22 N1          0.3503    0.2221    5.5208 N.pl3     1 UNL1       -0.5644
     23 N2         -0.8906   -3.3846    2.2894 N.4       1 UNL1       -0.6863
     24 S1          0.5509    2.9787    6.9438 S.3       1 UNL1       -0.0274
     25 S2         -4.3667   -1.0176    7.4145 S.3       1 UNL1       -0.1795
     26 H1          3.5143    1.4501    2.3731 H         1 UNL1        0.1376
     27 H2          3.7980    3.6966    3.3813 H         1 UNL1        0.1535
     28 H3          1.9387   -0.1405    3.3180 H         1 UNL1        0.1102
     29 H4          2.4855    4.3299    5.3573 H         1 UNL1        0.1542
     30 H5         -1.9175    3.1063    8.3486 H         1 UNL1        0.1586
     31 H6         -3.8186    1.5954    8.5671 H         1 UNL1        0.1629
     32 H7         -1.9223   -1.2144    5.9420 H         1 UNL1        0.1175
     33 H8          1.2754   -5.5169    3.7215 H         1 UNL1        0.0683
     34 H9          2.6272   -5.0240    2.7031 H         1 UNL1        0.0931
     35 H10         1.1238   -4.5787    0.8130 H         1 UNL1        0.0714
     36 H11         0.8538   -6.2130    1.4093 H         1 UNL1        0.1038
     37 H12         1.9239   -3.2255    4.2702 H         1 UNL1        0.1020
     38 H13         1.7950   -2.7265    2.5881 H         1 UNL1        0.0701
     39 H14        -1.2882   -4.9842    0.9544 H         1 UNL1        0.0995
     40 H15        -1.1656   -5.4529    2.6769 H         1 UNL1        0.1035
     41 H16        -0.5383   -3.6783    4.3627 H         1 UNL1        0.1055
     42 H17        -2.8011   -3.6317    3.1654 H         1 UNL1        0.1043
     43 H18        -2.4371   -1.9690    2.5794 H         1 UNL1        0.1066
     44 H19        -2.8084   -3.2778    1.4006 H         1 UNL1        0.1010
     45 H20        -5.7238   -1.7671    5.5719 H         1 UNL1        0.0855
     46 H21        -4.0320   -1.5117    5.0821 H         1 UNL1        0.0217
     47 H22        -5.1127   -0.1155    5.3106 H         1 UNL1        0.0702
     48 H23        -1.3214   -1.3567    4.0711 H         1 UNL1        0.0705
     49 H24         0.0801   -0.9711    3.0699 H         1 UNL1        0.0736
     50 H25         0.1446   -1.7763    6.0292 H         1 UNL1        0.0737
     51 H26         1.5810   -1.3952    5.0631 H         1 UNL1        0.0702
     52 H27        -0.4933   -2.8137    1.5306 H         1 UNL1        0.4442
@<TRIPOS>BOND
     1    1    2 ar
     2    1    3 ar
     3    2    4 ar
     4    3    8 ar
     5    4   10 ar
     6    5    6 ar
     7    5   11 ar
     8    6   12 ar
     9    7    9 ar
    10    7   12 ar
    11    8   10 ar
    12    8   22 1
    13    9   11 ar
    14    9   22 1
    15   10   24 1
    16   11   24 1
    17   12   25 1
    18   13   14 1
    19   13   15 1
    20   14   16 1
    21   15   17 1
    22   16   23 1
    23   17   20 1
    24   17   23 1
    25   18   23 1
    26   19   25 1
    27   20   21 1
    28   21   22 1
    29    1   26 1
    30    2   27 1
    31    3   28 1
    32    4   29 1
    33    5   30 1
    34    6   31 1
    35    7   32 1
    36   13   33 1
    37   13   34 1
    38   14   35 1
    39   14   36 1
    40   15   37 1
    41   15   38 1
    42   16   39 1
    43   16   40 1
    44   17   41 1
    45   18   42 1
    46   18   43 1
    47   18   44 1
    48   19   45 1
    49   19   46 1
    50   19   47 1
    51   20   48 1
    52   20   49 1
    53   21   50 1
    54   21   51 1
    55   23   52 1
