@<TRIPOS>MOLECULE
*****
   53    56     0     0     0
SMALL
USER_CHARGES

@<TRIPOS>ATOM
      1 C1         -0.8881   -4.5277    5.4564 C.ar      1 UNL1       -0.0961
      2 C2         -0.1529   -5.6581    5.7792 C.ar      1 UNL1       -0.1270
      3 C3          5.8024   -1.0401    6.0255 C.ar      1 UNL1       -0.0772
      4 C4         -0.3073   -3.2615    5.5677 C.ar      1 UNL1       -0.1810
      5 C5          1.1635   -5.5203    6.2064 C.ar      1 UNL1       -0.0759
      6 C6          5.3209   -2.2964    6.3782 C.ar      1 UNL1       -0.0938
      7 C7          3.5327   -0.2838    5.7257 C.ar      1 UNL1       -0.1439
      8 C8          4.9074   -0.0337    5.6957 C.ar      1 UNL1       -0.1467
      9 C9          1.0222   -3.0846    6.0096 C.ar      1 UNL1        0.1593
     10 C10         3.0096   -1.5436    6.0912 C.ar      1 UNL1        0.1536
     11 C11         1.7545   -4.2489    6.3154 C.ar      1 UNL1       -0.0661
     12 C12         3.9389   -2.5550    6.4051 C.ar      1 UNL1       -0.0304
     13 C13        -0.0277    2.6211    1.3250 C.3       1 UNL1        0.1395
     14 C14        -2.3964    2.5855    1.8099 C.3       1 UNL1        0.1413
     15 C15         0.3099    2.2905    2.7751 C.3       1 UNL1        0.1054
     16 C16        -2.1276    2.2538    3.2739 C.3       1 UNL1        0.1087
     17 C17        -1.5823    3.7093   -0.1597 C.3       1 UNL1        0.1498
     18 C18         0.4032   -0.1225    4.7668 C.3       1 UNL1       -0.1662
     19 C19         0.7146   -0.6424    6.1677 C.3       1 UNL1        0.2253
     20 C20        -0.5292    1.0822    4.7913 C.3       1 UNL1        0.1161
     21 C21         5.4118    1.3140    5.3019 C.3       1 UNL1        0.6882
     22 N1          1.6155   -1.8008    6.1100 N.pl3     1 UNL1       -0.5454
     23 N2         -1.2924    3.3623    1.2312 N.3       1 UNL1       -0.7348
     24 N3         -0.8246    1.5021    3.3794 N.4       1 UNL1       -0.6879
     25 F1          6.7740    1.4122    5.3105 F         1 UNL1       -0.2181
     26 F2          5.0352    1.6924    4.0449 F         1 UNL1       -0.2516
     27 F3          4.9680    2.3031    6.1309 F         1 UNL1       -0.2376
     28 S1          3.4386   -4.1935    6.8945 S.3       1 UNL1       -0.0084
     29 H1         -1.9131   -4.6250    5.1106 H         1 UNL1        0.1405
     30 H2         -0.5993   -6.6441    5.6944 H         1 UNL1        0.1549
     31 H3          6.8736   -0.8599    6.0072 H         1 UNL1        0.1690
     32 H4         -0.9209   -2.4128    5.2746 H         1 UNL1        0.1127
     33 H5          1.7252   -6.4193    6.4524 H         1 UNL1        0.1562
     34 H6          6.0385   -3.0742    6.6322 H         1 UNL1        0.1647
     35 H7          2.8707    0.5281    5.4313 H         1 UNL1        0.1273
     36 H8          0.7880    3.2316    0.9191 H         1 UNL1        0.1118
     37 H9         -0.0659    1.6974    0.7324 H         1 UNL1        0.0410
     38 H10        -2.5660    1.6602    1.2431 H         1 UNL1        0.0396
     39 H11        -3.3233    3.1697    1.7594 H         1 UNL1        0.1093
     40 H12         1.2050    1.6656    2.8297 H         1 UNL1        0.1071
     41 H13         0.4486    3.1924    3.3788 H         1 UNL1        0.1181
     42 H14        -2.0438    3.1548    3.8890 H         1 UNL1        0.1179
     43 H15        -2.9108    1.6034    3.6719 H         1 UNL1        0.1009
     44 H16        -2.5244    4.2603   -0.2209 H         1 UNL1        0.0721
     45 H17        -1.6646    2.8032   -0.7661 H         1 UNL1        0.0295
     46 H18        -0.7827    4.3330   -0.5682 H         1 UNL1        0.0741
     47 H19        -0.0394   -0.9239    4.1615 H         1 UNL1        0.0733
     48 H20         1.3466    0.1584    4.2822 H         1 UNL1        0.0759
     49 H21         1.1974    0.1475    6.7523 H         1 UNL1        0.0768
     50 H22        -0.2082   -0.9204    6.6879 H         1 UNL1        0.0752
     51 H23        -1.4915    0.8544    5.2584 H         1 UNL1        0.1012
     52 H24        -0.0726    1.9430    5.2886 H         1 UNL1        0.1106
     53 H25        -0.9244    0.6395    2.8241 H         1 UNL1        0.4410
@<TRIPOS>BOND
     1    1    2 ar
     2    1    4 ar
     3    2    5 ar
     4    3    6 ar
     5    3    8 ar
     6    4    9 ar
     7    5   11 ar
     8    6   12 ar
     9    7    8 ar
    10    7   10 ar
    11    8   21 1
    12    9   11 ar
    13    9   22 1
    14   10   12 ar
    15   10   22 1
    16   11   28 1
    17   12   28 1
    18   13   15 1
    19   13   23 1
    20   14   16 1
    21   14   23 1
    22   15   24 1
    23   16   24 1
    24   17   23 1
    25   18   19 1
    26   18   20 1
    27   19   22 1
    28   20   24 1
    29   21   25 1
    30   21   26 1
    31   21   27 1
    32    1   29 1
    33    2   30 1
    34    3   31 1
    35    4   32 1
    36    5   33 1
    37    6   34 1
    38    7   35 1
    39   13   36 1
    40   13   37 1
    41   14   38 1
    42   14   39 1
    43   15   40 1
    44   15   41 1
    45   16   42 1
    46   16   43 1
    47   17   44 1
    48   17   45 1
    49   17   46 1
    50   18   47 1
    51   18   48 1
    52   19   49 1
    53   19   50 1
    54   20   51 1
    55   20   52 1
    56   24   53 1
