@<TRIPOS>MOLECULE
*****
   50    53     0     0     0
SMALL
USER_CHARGES

@<TRIPOS>ATOM
      1 C1         -6.3246    3.3558    4.0937 C.ar      1 UNL1       -0.0931
      2 C2         -6.6406    4.6996    4.2228 C.ar      1 UNL1       -0.1367
      3 C3         -5.6144    2.9095    2.9758 C.ar      1 UNL1       -0.1776
      4 C4         -6.2401    5.5954    3.2371 C.ar      1 UNL1       -0.0751
      5 C5         -2.9778    6.3566   -0.8231 C.ar      1 UNL1       -0.1094
      6 C6         -1.9677    5.7901   -1.5932 C.ar      1 UNL1       -0.0413
      7 C7         -2.6006    3.6127   -0.7739 C.ar      1 UNL1       -0.1106
      8 C8         -5.2031    3.7895    1.9508 C.ar      1 UNL1        0.1725
      9 C9         -3.6431    4.1534    0.0103 C.ar      1 UNL1        0.1576
     10 C10        -5.5208    5.1526    2.1127 C.ar      1 UNL1       -0.0762
     11 C11        -3.8064    5.5526   -0.0203 C.ar      1 UNL1       -0.0132
     12 C12        -1.7768    4.4169   -1.5661 C.ar      1 UNL1       -0.2578
     13 C13        -3.8176   -2.0668   -0.7108 C.3       1 UNL1        0.1458
     14 C14        -1.9092   -0.5763   -0.7957 C.3       1 UNL1        0.1384
     15 C15        -3.6651   -2.3964   -2.1910 C.3       1 UNL1        0.1026
     16 C16        -1.7082   -0.8676   -2.2781 C.3       1 UNL1        0.1051
     17 C17        -3.4622    1.1050    1.2748 C.3       1 UNL1       -0.1208
     18 C18        -4.5196    1.9036    0.5155 C.3       1 UNL1        0.2195
     19 C19        -3.5080   -0.3964    0.9996 C.3       1 UNL1        0.1724
     20 N1         -4.4712    3.3388    0.8232 N.pl3     1 UNL1       -0.5560
     21 N2         -3.3233   -0.7136   -0.4160 N.3       1 UNL1       -0.7414
     22 N3         -2.2343   -2.2306   -2.5810 N.4       1 UNL1       -0.7627
     23 F1          0.6943    4.7063   -2.6678 F         1 UNL1       -0.2791
     24 F2         -1.0439    3.3121   -3.9400 F         1 UNL1       -0.2099
     25 F3          0.0340    2.3993   -1.7974 F         1 UNL1       -0.3425
     26 S1         -5.0811    6.3860    0.9044 S.3       1 UNL1       -0.0225
     27 S2         -0.5009    3.6942   -2.5145 S.3       1 UNL1        0.8622
     28 H1         -6.6233    2.6496    4.8630 H         1 UNL1        0.1399
     29 H2         -7.1928    5.0514    5.0888 H         1 UNL1        0.1498
     30 H3         -5.3703    1.8503    2.9406 H         1 UNL1        0.1279
     31 H4         -6.4958    6.6463    3.3572 H         1 UNL1        0.1515
     32 H5         -3.1110    7.4362   -0.8561 H         1 UNL1        0.1579
     33 H6         -1.3366    6.4291   -2.2043 H         1 UNL1        0.1487
     34 H7         -2.3963    2.5441   -0.7612 H         1 UNL1        0.1195
     35 H8         -4.8801   -2.1303   -0.4581 H         1 UNL1        0.1082
     36 H9         -3.2893   -2.8139   -0.1089 H         1 UNL1        0.0427
     37 H10        -1.2790   -1.2441   -0.1984 H         1 UNL1        0.0422
     38 H11        -1.5782    0.4487   -0.6047 H         1 UNL1        0.1225
     39 H12        -3.9353   -3.4355   -2.4015 H         1 UNL1        0.1062
     40 H13        -4.2575   -1.7313   -2.8285 H         1 UNL1        0.1204
     41 H14        -2.2457   -0.1593   -2.9179 H         1 UNL1        0.1257
     42 H15        -0.6481   -0.8670   -2.5478 H         1 UNL1        0.1184
     43 H16        -3.5961    1.2808    2.3493 H         1 UNL1        0.0753
     44 H17        -2.4658    1.4789    1.0091 H         1 UNL1        0.0541
     45 H18        -4.4076    1.7895   -0.5670 H         1 UNL1        0.0647
     46 H19        -5.5196    1.5534    0.7905 H         1 UNL1        0.0652
     47 H20        -4.4836   -0.7987    1.2904 H         1 UNL1        0.0681
     48 H21        -2.7393   -0.9316    1.5655 H         1 UNL1        0.0370
     49 H22        -1.6615   -2.9362   -2.0970 H         1 UNL1        0.4467
     50 H23        -2.1274   -2.4247   -3.5860 H         1 UNL1        0.4569
@<TRIPOS>BOND
     1    1    2 ar
     2    1    3 ar
     3    2    4 ar
     4    3    8 ar
     5    4   10 ar
     6    5    6 ar
     7    5   11 ar
     8    6   12 ar
     9    7    9 ar
    10    7   12 ar
    11    8   10 ar
    12    8   20 1
    13    9   11 ar
    14    9   20 1
    15   10   26 1
    16   11   26 1
    17   12   27 1
    18   13   15 1
    19   13   21 1
    20   14   16 1
    21   14   21 1
    22   15   22 1
    23   16   22 1
    24   17   18 1
    25   17   19 1
    26   18   20 1
    27   19   21 1
    28   23   27 1
    29   24   27 1
    30   25   27 1
    31    1   28 1
    32    2   29 1
    33    3   30 1
    34    4   31 1
    35    5   32 1
    36    6   33 1
    37    7   34 1
    38   13   35 1
    39   13   36 1
    40   14   37 1
    41   14   38 1
    42   15   39 1
    43   15   40 1
    44   16   41 1
    45   16   42 1
    46   17   43 1
    47   17   44 1
    48   18   45 1
    49   18   46 1
    50   19   47 1
    51   19   48 1
    52   22   49 1
    53   22   50 1
