@<TRIPOS>MOLECULE
*****
   39    39     0     0     0
SMALL
USER_CHARGES

@<TRIPOS>ATOM
      1 C1         -0.4632   -0.8606    0.4991 C.3       1 UNL1       -0.0788
      2 C2         -1.7923   -1.1673   -0.2129 C.3       1 UNL1       -0.0826
      3 C3          0.5308   -2.0286    0.4753 C.3       1 UNL1       -0.0836
      4 C4         -2.6109   -2.3245    0.3791 C.3       1 UNL1       -0.0828
      5 C5          1.8331   -1.7674    1.2445 C.3       1 UNL1       -0.0840
      6 C6         -3.1793   -2.0342    1.7750 C.3       1 UNL1       -0.0837
      7 C7          1.7226   -1.5792    2.7651 C.3       1 UNL1       -0.0847
      8 C8         -3.3146   -3.2743    2.6747 C.3       1 UNL1       -0.0934
      9 C9          1.6825   -2.8612    3.6156 C.3       1 UNL1       -0.0932
     10 C10        -2.0065   -4.0291    2.9759 C.3       1 UNL1       -0.1111
     11 C11         0.4973   -3.8134    3.4107 C.3       1 UNL1       -0.1111
     12 C12        -0.8813   -3.1553    3.5462 C.3       1 UNL1        0.1127
     13 N1         -1.1586   -2.8737    4.9822 N.4       1 UNL1       -0.8403
     14 H1         -0.0001   -0.0000   -0.0001 H         1 UNL1        0.0607
     15 H2         -0.6657   -0.5377    1.5227 H         1 UNL1        0.0135
     16 H3         -2.4076   -0.2592   -0.2148 H         1 UNL1        0.0545
     17 H4         -1.5783   -1.3986   -1.2638 H         1 UNL1        0.0605
     18 H5          0.0656   -2.9409    0.8439 H         1 UNL1        0.0172
     19 H6          0.7926   -2.2307   -0.5715 H         1 UNL1        0.0643
     20 H7         -3.4560   -2.5237   -0.2929 H         1 UNL1        0.0612
     21 H8         -2.0129   -3.2375    0.3608 H         1 UNL1        0.0349
     22 H9          2.5351   -2.5844    1.0368 H         1 UNL1        0.0542
     23 H10         2.2896   -0.8614    0.8249 H         1 UNL1        0.0630
     24 H11        -2.6010   -1.2667    2.2960 H         1 UNL1        0.0238
     25 H12        -4.1777   -1.5945    1.6504 H         1 UNL1        0.0675
     26 H13         2.6249   -1.0369    3.0803 H         1 UNL1        0.0651
     27 H14         0.8933   -0.9159    3.0254 H         1 UNL1        0.0243
     28 H15        -3.7744   -2.9649    3.6210 H         1 UNL1        0.0259
     29 H16        -4.0176   -3.9754    2.2078 H         1 UNL1        0.0834
     30 H17         2.6063   -3.4262    3.4366 H         1 UNL1        0.0843
     31 H18         1.7162   -2.5651    4.6715 H         1 UNL1        0.0217
     32 H19        -2.2245   -4.8561    3.6644 H         1 UNL1        0.0617
     33 H20        -1.6637   -4.5099    2.0528 H         1 UNL1        0.1035
     34 H21         0.5990   -4.2764    2.4232 H         1 UNL1        0.1055
     35 H22         0.5830   -4.6442    4.1235 H         1 UNL1        0.0645
     36 H23        -0.8740   -2.1846    3.0626 H         1 UNL1        0.1320
     37 H24        -1.6123   -3.6763    5.4269 H         1 UNL1        0.4534
     38 H25        -1.7760   -2.0627    5.0782 H         1 UNL1        0.4568
     39 H26        -0.2896   -2.6768    5.4862 H         1 UNL1        0.4594
@<TRIPOS>BOND
     1    1    2 1
     2    1    3 1
     3    2    4 1
     4    3    5 1
     5    4    6 1
     6    5    7 1
     7    6    8 1
     8    7    9 1
     9    8   10 1
    10    9   11 1
    11   10   12 1
    12   11   12 1
    13   12   13 1
    14    1   14 1
    15    1   15 1
    16    2   16 1
    17    2   17 1
    18    3   18 1
    19    3   19 1
    20    4   20 1
    21    4   21 1
    22    5   22 1
    23    5   23 1
    24    6   24 1
    25    6   25 1
    26    7   26 1
    27    7   27 1
    28    8   28 1
    29    8   29 1
    30    9   30 1
    31    9   31 1
    32   10   32 1
    33   10   33 1
    34   11   34 1
    35   11   35 1
    36   12   36 1
    37   13   37 1
    38   13   38 1
    39   13   39 1
