@<TRIPOS>MOLECULE
*****
   42    42     0     0     0
SMALL
USER_CHARGES

@<TRIPOS>ATOM
      1 C1         -0.1784    1.2860    5.1913 C.ar      1 UNL1       -0.1065
      2 C2          0.5095    1.7497    6.3126 C.ar      1 UNL1       -0.0926
      3 C3          1.3001   -0.6212    5.0730 C.ar      1 UNL1       -0.0924
      4 C4          1.9880   -0.1574    6.1943 C.ar      1 UNL1       -0.1058
      5 C5          0.2169    0.1005    4.5715 C.ar      1 UNL1       -0.1219
      6 C6          1.5927    1.0281    6.8141 C.ar      1 UNL1       -0.1234
      7 C7         -1.7548   -1.8291    4.9819 C.3       1 UNL1        0.0910
      8 C8         -2.8952    0.1010    3.9091 C.3       1 UNL1        0.0851
      9 C9         -2.3259   -1.9101    2.5646 C.3       1 UNL1        0.0886
     10 C10         0.5275    0.4238    9.3230 C.3       1 UNL1        0.0914
     11 C11         2.8145   -0.5483    9.2924 C.3       1 UNL1        0.0852
     12 C12         2.3863    1.5834   10.4961 C.3       1 UNL1        0.0889
     13 C13        -0.5225   -0.3990    3.3654 C.3       1 UNL1        0.1616
     14 C14         2.3288    1.5255    8.0121 C.3       1 UNL1        0.1648
     15 N1         -1.8746   -1.0093    3.7052 N.4       1 UNL1       -0.6045
     16 N2          2.0211    0.7630    9.2535 N.4       1 UNL1       -0.6075
     17 H1         -1.0216    1.8544    4.8078 H         1 UNL1        0.1586
     18 H2          0.1956    2.6750    6.7882 H         1 UNL1        0.1651
     19 H3          1.6155   -1.5452    4.5955 H         1 UNL1        0.1649
     20 H4          2.8308   -0.7259    6.5787 H         1 UNL1        0.1605
     21 H5         -1.0182   -2.6152    4.8061 H         1 UNL1        0.0994
     22 H6         -1.4307   -1.1587    5.7802 H         1 UNL1        0.0900
     23 H7         -2.7368   -2.2532    5.2000 H         1 UNL1        0.1105
     24 H8         -2.9595    0.6702    2.9800 H         1 UNL1        0.1093
     25 H9         -3.8523   -0.3651    4.1510 H         1 UNL1        0.1117
     26 H10        -2.5458    0.7292    4.7307 H         1 UNL1        0.0929
     27 H11        -2.4027   -1.2966    1.6650 H         1 UNL1        0.1114
     28 H12        -1.5768   -2.6947    2.4420 H         1 UNL1        0.1056
     29 H13        -3.2955   -2.3321    2.8357 H         1 UNL1        0.1117
     30 H14        -0.0296    1.3620    9.2947 H         1 UNL1        0.0994
     31 H15         0.2865   -0.2020    8.4615 H         1 UNL1        0.0891
     32 H16         0.3493   -0.1103   10.2582 H         1 UNL1        0.1106
     33 H17         3.8758   -0.2980    9.2426 H         1 UNL1        0.1093
     34 H18         2.5745   -1.0565   10.2283 H         1 UNL1        0.1116
     35 H19         2.5119   -1.1476    8.4315 H         1 UNL1        0.0930
     36 H20         3.4502    1.8205   10.4389 H         1 UNL1        0.1105
     37 H21         1.7806    2.4916   10.4868 H         1 UNL1        0.1056
     38 H22         2.1668    0.9742   11.3750 H         1 UNL1        0.1120
     39 H23        -0.7132    0.4117    2.6540 H         1 UNL1        0.1193
     40 H24         0.0499   -1.1733    2.8432 H         1 UNL1        0.1129
     41 H25         3.4168    1.4624    7.8738 H         1 UNL1        0.1199
     42 H26         2.0876    2.5753    8.2278 H         1 UNL1        0.1132
@<TRIPOS>BOND
     1    1    2 ar
     2    1    5 ar
     3    2    6 ar
     4    3    4 ar
     5    3    5 ar
     6    4    6 ar
     7    5   13 1
     8    6   14 1
     9    7   15 1
    10    8   15 1
    11    9   15 1
    12   10   16 1
    13   11   16 1
    14   12   16 1
    15   13   15 1
    16   14   16 1
    17    1   17 1
    18    2   18 1
    19    3   19 1
    20    4   20 1
    21    7   21 1
    22    7   22 1
    23    7   23 1
    24    8   24 1
    25    8   25 1
    26    8   26 1
    27    9   27 1
    28    9   28 1
    29    9   29 1
    30   10   30 1
    31   10   31 1
    32   10   32 1
    33   11   33 1
    34   11   34 1
    35   11   35 1
    36   12   36 1
    37   12   37 1
    38   12   38 1
    39   13   39 1
    40   13   40 1
    41   14   41 1
    42   14   42 1
