@<TRIPOS>MOLECULE
*****
   20    19     0     0     0
SMALL
USER_CHARGES

@<TRIPOS>ATOM
      1 C1         -0.0384   -0.2215    1.0728 C.3       1 UNL1       -0.0987
      2 C2          2.3553    0.4716    1.2572 C.3       1 UNL1       -0.1169
      3 C3          1.7850   -1.9336    0.8916 C.3       1 UNL1       -0.1151
      4 C4          1.3348   -0.8138    3.1328 C.3       1 UNL1        0.0981
      5 C5          1.3450   -0.6404    1.5993 C.3       1 UNL1       -0.0711
      6 N1          2.6530   -1.2356    3.6658 N.4       1 UNL1       -0.8360
      7 H1         -0.7926   -0.9847    1.2939 H         1 UNL1        0.0565
      8 H2         -0.3683    0.7152    1.5366 H         1 UNL1        0.0558
      9 H3         -0.0303   -0.0595   -0.0102 H         1 UNL1        0.0789
     10 H4          3.3597    0.2169    1.6142 H         1 UNL1        0.0250
     11 H5          2.0677    1.4230    1.7190 H         1 UNL1        0.0553
     12 H6          2.4185    0.6332    0.1750 H         1 UNL1        0.0892
     13 H7          2.7682   -2.2719    1.2351 H         1 UNL1        0.0265
     14 H8          1.0776   -2.7482    1.0854 H         1 UNL1        0.0568
     15 H9          1.8377   -1.7913   -0.1935 H         1 UNL1        0.0881
     16 H10         0.6188   -1.5814    3.4454 H         1 UNL1        0.1121
     17 H11         1.0854    0.1237    3.6410 H         1 UNL1        0.1117
     18 H12         2.5407   -1.8659    4.4672 H         1 UNL1        0.4601
     19 H13         3.1996   -0.4247    3.9761 H         1 UNL1        0.4604
     20 H14         3.1979   -1.7286    2.9501 H         1 UNL1        0.4633
@<TRIPOS>BOND
     1    1    5 1
     2    2    5 1
     3    3    5 1
     4    4    5 1
     5    4    6 1
     6    1    7 1
     7    1    8 1
     8    1    9 1
     9    2   10 1
    10    2   11 1
    11    2   12 1
    12    3   13 1
    13    3   14 1
    14    3   15 1
    15    4   16 1
    16    4   17 1
    17    6   18 1
    18    6   19 1
    19    6   20 1
