@<TRIPOS>MOLECULE
*****
   50    52     0     0     0
SMALL
USER_CHARGES

@<TRIPOS>ATOM
      1 C1         -0.1569    0.3040   -1.0410 C.3       1 UNL1       -0.0911
      2 C2         -1.9136   -1.4537   -1.3743 C.3       1 UNL1       -0.1060
      3 C3          0.5655    0.0356   -3.4309 C.3       1 UNL1       -0.0783
      4 C4         -1.1950   -1.7243   -3.7611 C.3       1 UNL1       -0.0849
      5 C5         -1.6245    0.0591   -1.4505 C.3       1 UNL1       -0.0699
      6 C6          0.7965   -0.4601   -1.9855 C.3       1 UNL1       -0.0723
      7 C7         -0.9718   -2.2270   -2.3192 C.3       1 UNL1       -0.0780
      8 C8         -0.9010   -0.2109   -3.8513 C.3       1 UNL1       -0.0803
      9 C9         -1.8007    0.5859   -2.8878 C.3       1 UNL1        0.1414
     10 C10         0.5050   -1.9724   -1.9609 C.3       1 UNL1        0.1445
     11 C11        -3.8499   -0.8182   -2.8105 C.3       1 UNL1        0.0800
     12 C12        -3.3430    0.5301   -4.8357 C.3       1 UNL1        0.0854
     13 C13        -4.0372    1.6586   -2.7330 C.3       1 UNL1        0.0876
     14 C14         0.3860   -1.5846    0.4911 C.3       1 UNL1        0.0816
     15 C15         2.3307   -2.7861   -0.4840 C.3       1 UNL1        0.0848
     16 C16         0.0996   -3.8791   -0.4192 C.3       1 UNL1        0.0853
     17 N1         -3.2246    0.4913   -3.3070 N.4       1 UNL1       -0.6017
     18 N2          0.8230   -2.5423   -0.6244 N.4       1 UNL1       -0.6018
     19 H1          0.0657    1.3778   -1.0839 H         1 UNL1        0.0829
     20 H2          0.0000    0.0008    0.0002 H         1 UNL1        0.0760
     21 H3         -1.7958   -1.8027   -0.3421 H         1 UNL1        0.0557
     22 H4         -2.9568   -1.6606   -1.6386 H         1 UNL1        0.0736
     23 H5          0.8017    1.1045   -3.5018 H         1 UNL1        0.0861
     24 H6          1.2439   -0.4844   -4.1187 H         1 UNL1        0.0851
     25 H7         -0.5362   -2.2686   -4.4495 H         1 UNL1        0.0864
     26 H8         -2.2195   -1.9424   -4.0825 H         1 UNL1        0.0669
     27 H9         -2.2857    0.6001   -0.7636 H         1 UNL1        0.0832
     28 H10         1.8372   -0.2668   -1.7003 H         1 UNL1        0.0908
     29 H11        -1.1950   -3.2993   -2.2724 H         1 UNL1        0.0878
     30 H12        -1.0436    0.1354   -4.8816 H         1 UNL1        0.0936
     31 H13        -1.5588    1.6544   -2.9352 H         1 UNL1        0.1041
     32 H14         1.1642   -2.4998   -2.6608 H         1 UNL1        0.1054
     33 H15        -4.8895   -0.8388   -3.1426 H         1 UNL1        0.1120
     34 H16        -3.2830   -1.6445   -3.2435 H         1 UNL1        0.0982
     35 H17        -3.7859   -0.8268   -1.7207 H         1 UNL1        0.1007
     36 H18        -4.4019    0.4581   -5.0905 H         1 UNL1        0.1119
     37 H19        -2.9198    1.4758   -5.1797 H         1 UNL1        0.1060
     38 H20        -2.7845   -0.3183   -5.2357 H         1 UNL1        0.1008
     39 H21        -5.0696    1.5434   -3.0681 H         1 UNL1        0.1115
     40 H22        -3.9699    1.6093   -1.6445 H         1 UNL1        0.0989
     41 H23        -3.6030    2.5860   -3.1115 H         1 UNL1        0.1083
     42 H24         0.6401   -2.0468    1.4467 H         1 UNL1        0.1118
     43 H25         0.9239   -0.6446    0.3542 H         1 UNL1        0.1040
     44 H26        -0.6919   -1.4366    0.4012 H         1 UNL1        0.0956
     45 H27         2.5106   -3.2024    0.5088 H         1 UNL1        0.1124
     46 H28         2.6297   -3.4885   -1.2644 H         1 UNL1        0.1072
     47 H29         2.8370   -1.8265   -0.6047 H         1 UNL1        0.1024
     48 H30         0.3647   -4.2537    0.5712 H         1 UNL1        0.1130
     49 H31        -0.9735   -3.6934   -0.4944 H         1 UNL1        0.0965
     50 H32         0.4351   -4.5639   -1.2004 H         1 UNL1        0.1051
@<TRIPOS>BOND
     1    1    5 1
     2    1    6 1
     3    2    5 1
     4    2    7 1
     5    3    6 1
     6    3    8 1
     7    4    7 1
     8    4    8 1
     9    5    9 1
    10    6   10 1
    11    7   10 1
    12    8    9 1
    13    9   17 1
    14   10   18 1
    15   11   17 1
    16   12   17 1
    17   13   17 1
    18   14   18 1
    19   15   18 1
    20   16   18 1
    21    1   19 1
    22    1   20 1
    23    2   21 1
    24    2   22 1
    25    3   23 1
    26    3   24 1
    27    4   25 1
    28    4   26 1
    29    5   27 1
    30    6   28 1
    31    7   29 1
    32    8   30 1
    33    9   31 1
    34   10   32 1
    35   11   33 1
    36   11   34 1
    37   11   35 1
    38   12   36 1
    39   12   37 1
    40   12   38 1
    41   13   39 1
    42   13   40 1
    43   13   41 1
    44   14   42 1
    45   14   43 1
    46   14   44 1
    47   15   45 1
    48   15   46 1
    49   15   47 1
    50   16   48 1
    51   16   49 1
    52   16   50 1
