@<TRIPOS>MOLECULE
*****
   46    47     0     0     0
SMALL
USER_CHARGES

@<TRIPOS>ATOM
      1 C1          2.0340   -2.5218    1.8349 C.3       1 UNL1       -0.1026
      2 C2          0.5905   -0.4920    2.2076 C.3       1 UNL1       -0.1055
      3 C3         -0.0094   -3.6105   -0.0142 C.3       1 UNL1       -0.1054
      4 C4         -1.4002   -1.5395    0.3307 C.3       1 UNL1       -0.1048
      5 C5          2.6806   -2.3132    3.1993 C.3       1 UNL1        0.1153
      6 C6          1.2368   -0.2823    3.5720 C.3       1 UNL1        0.1156
      7 C7         -0.6565   -3.8184   -1.3785 C.3       1 UNL1        0.1168
      8 C8         -2.0482   -1.7468   -1.0332 C.3       1 UNL1        0.1160
      9 C9          0.6099   -1.9630    1.7851 C.3       1 UNL1       -0.0686
     10 C10         0.0085   -2.1348    0.3916 C.3       1 UNL1       -0.0686
     11 C11         3.6158   -0.0061    2.7664 C.3       1 UNL1        0.0873
     12 C12         3.1574   -0.7552    5.0708 C.3       1 UNL1        0.0896
     13 C13        -3.0443   -4.0239   -0.5778 C.3       1 UNL1        0.0876
     14 C14        -2.5593   -3.3132   -2.8889 C.3       1 UNL1        0.0894
     15 N1          2.6623   -0.8408    3.6210 N.4       1 UNL1       -0.6055
     16 N2         -2.0668   -3.2238   -1.4385 N.4       1 UNL1       -0.6059
     17 H1          2.6514   -2.0720    1.0487 H         1 UNL1        0.0743
     18 H2          2.0093   -3.5976    1.6209 H         1 UNL1        0.0950
     19 H3         -0.4481   -0.1418    2.2555 H         1 UNL1        0.0942
     20 H4          1.0846    0.1312    1.4531 H         1 UNL1        0.0741
     21 H5         -0.5220   -4.2121    0.7454 H         1 UNL1        0.0742
     22 H6          1.0199   -3.9882   -0.0546 H         1 UNL1        0.0943
     23 H7         -1.3481   -0.4624    0.5327 H         1 UNL1        0.0940
     24 H8         -2.0315   -1.9642    1.1200 H         1 UNL1        0.0740
     25 H9          2.1341   -2.8756    3.9661 H         1 UNL1        0.1024
     26 H10         3.7245   -2.6466    3.1972 H         1 UNL1        0.1124
     27 H11         1.2869    0.7825    3.8261 H         1 UNL1        0.1122
     28 H12         0.6598   -0.8012    4.3471 H         1 UNL1        0.1028
     29 H13        -0.0637   -3.3230   -2.1570 H         1 UNL1        0.1027
     30 H14        -0.7333   -4.8843   -1.6213 H         1 UNL1        0.1122
     31 H15        -3.0832   -1.3866   -1.0379 H         1 UNL1        0.1121
     32 H16        -1.4855   -1.2072   -1.8046 H         1 UNL1        0.1024
     33 H17        -0.0096   -2.5330    2.4907 H         1 UNL1        0.0724
     34 H18         0.6448   -1.5891   -0.3182 H         1 UNL1        0.0727
     35 H19         3.5578    1.0271    3.1137 H         1 UNL1        0.1079
     36 H20         4.6219   -0.4087    2.8982 H         1 UNL1        0.1087
     37 H21         3.2927   -0.0894    1.7270 H         1 UNL1        0.0947
     38 H22         3.1427    0.2953    5.3671 H         1 UNL1        0.1101
     39 H23         2.4812   -1.3474    5.6904 H         1 UNL1        0.1037
     40 H24         4.1717   -1.1575    5.1018 H         1 UNL1        0.1099
     41 H25        -4.0256   -3.5533   -0.6619 H         1 UNL1        0.1082
     42 H26        -3.0653   -5.0466   -0.9590 H         1 UNL1        0.1086
     43 H27        -2.6827   -3.9962    0.4519 H         1 UNL1        0.0946
     44 H28        -3.5642   -2.8886   -2.9271 H         1 UNL1        0.1101
     45 H29        -1.8681   -2.7428   -3.5123 H         1 UNL1        0.1044
     46 H30        -2.5675   -4.3668   -3.1747 H         1 UNL1        0.1099
@<TRIPOS>BOND
     1    1    5 1
     2    1    9 1
     3    2    6 1
     4    2    9 1
     5    3    7 1
     6    3   10 1
     7    4    8 1
     8    4   10 1
     9    5   15 1
    10    6   15 1
    11    7   16 1
    12    8   16 1
    13    9   10 1
    14   11   15 1
    15   12   15 1
    16   13   16 1
    17   14   16 1
    18    1   17 1
    19    1   18 1
    20    2   19 1
    21    2   20 1
    22    3   21 1
    23    3   22 1
    24    4   23 1
    25    4   24 1
    26    5   25 1
    27    5   26 1
    28    6   27 1
    29    6   28 1
    30    7   29 1
    31    7   30 1
    32    8   31 1
    33    8   32 1
    34    9   33 1
    35   10   34 1
    36   11   35 1
    37   11   36 1
    38   11   37 1
    39   12   38 1
    40   12   39 1
    41   12   40 1
    42   13   41 1
    43   13   42 1
    44   13   43 1
    45   14   44 1
    46   14   45 1
    47   14   46 1
