@<TRIPOS>MOLECULE
*****
   22    23     0     0     0
SMALL
USER_CHARGES

@<TRIPOS>ATOM
      1 C1          0.9375    0.3588    0.4363 C.3       1 UNL1       -0.0905
      2 C2          1.1756    1.8497    0.1492 C.3       1 UNL1       -0.0767
      3 C3          1.9802    1.3561    2.3273 C.3       1 UNL1       -0.0986
      4 C4         -0.3629    0.9429    2.5005 C.3       1 UNL1       -0.0992
      5 C5          0.9351    0.2985    1.9740 C.3       1 UNL1       -0.0708
      6 C6          1.2539    2.4642    1.5590 C.3       1 UNL1       -0.0983
      7 C7         -0.1592    2.4298    2.1692 C.3       1 UNL1        0.1059
      8 N1         -0.2071    3.2350    3.4140 N.4       1 UNL1       -0.8388
      9 H1         -0.0004    0.0004    0.0004 H         1 UNL1        0.0667
     10 H2          1.7577   -0.2393    0.0232 H         1 UNL1        0.0788
     11 H3          2.1219    1.9836   -0.3871 H         1 UNL1        0.0838
     12 H4          0.3751    2.2850   -0.4574 H         1 UNL1        0.0623
     13 H5          2.0618    1.5414    3.4025 H         1 UNL1        0.0413
     14 H6          2.9734    1.1323    1.9231 H         1 UNL1        0.0967
     15 H7         -1.2535    0.5373    2.0092 H         1 UNL1        0.0952
     16 H8         -0.4653    0.7684    3.5780 H         1 UNL1        0.0621
     17 H9          1.1201   -0.7009    2.3730 H         1 UNL1        0.1074
     18 H10         1.7338    3.4452    1.5736 H         1 UNL1        0.0874
     19 H11        -0.9320    2.8295    1.5053 H         1 UNL1        0.1155
     20 H12        -0.2124    2.6303    4.2424 H         1 UNL1        0.4555
     21 H13        -1.0517    3.8165    3.4421 H         1 UNL1        0.4564
     22 H14         0.6065    3.8559    3.4811 H         1 UNL1        0.4579
@<TRIPOS>BOND
     1    1    2 1
     2    1    5 1
     3    2    6 1
     4    3    5 1
     5    3    6 1
     6    4    5 1
     7    4    7 1
     8    6    7 1
     9    7    8 1
    10    1    9 1
    11    1   10 1
    12    2   11 1
    13    2   12 1
    14    3   13 1
    15    3   14 1
    16    4   15 1
    17    4   16 1
    18    5   17 1
    19    6   18 1
    20    7   19 1
    21    8   20 1
    22    8   21 1
    23    8   22 1
