@<TRIPOS>MOLECULE
*****
   20    19     0     0     0
SMALL
USER_CHARGES

@<TRIPOS>ATOM
      1 C1          0.3691    0.3559    1.8695 C.3       1 UNL1       -0.3399
      2 C2          1.2962   -1.3519   -0.4973 C.3       1 UNL1       -0.3424
      3 C3          1.3481    1.6974   -0.6962 C.3       1 UNL1       -0.3274
      4 C4         -1.3258    0.2318   -0.6858 C.3       1 UNL1       -0.1306
      5 N1         -2.1180   -0.8942   -0.1287 N.4       1 UNL1       -0.7936
      6 Si1         0.4087    0.2251   -0.0019 Si        1 UNL1        0.6921
      7 H1         -0.1433    1.2675    2.1917 H         1 UNL1        0.0720
      8 H2         -0.1551   -0.4953    2.3147 H         1 UNL1        0.0443
      9 H3          1.3808    0.3781    2.2861 H         1 UNL1        0.0950
     10 H4          1.3363   -1.4581   -1.5857 H         1 UNL1        0.0728
     11 H5          2.3249   -1.3610   -0.1242 H         1 UNL1        0.0947
     12 H6          0.7889   -2.2344   -0.0955 H         1 UNL1        0.0441
     13 H7          1.3937    1.6581   -1.7889 H         1 UNL1        0.0747
     14 H8          0.8680    2.6404   -0.4171 H         1 UNL1        0.0731
     15 H9          2.3758    1.7236   -0.3212 H         1 UNL1        0.0892
     16 H10        -1.8631    1.1482   -0.4251 H         1 UNL1        0.1105
     17 H11        -1.3358    0.1105   -1.7728 H         1 UNL1        0.1120
     18 H12        -1.7071   -1.8082   -0.3621 H         1 UNL1        0.4566
     19 H13        -2.2000   -0.8393    0.8956 H         1 UNL1        0.4556
     20 H14        -3.0747   -0.8893   -0.5074 H         1 UNL1        0.4472
@<TRIPOS>BOND
     1    1    6 1
     2    2    6 1
     3    3    6 1
     4    4    5 1
     5    4    6 1
     6    1    7 1
     7    1    8 1
     8    1    9 1
     9    2   10 1
    10    2   11 1
    11    2   12 1
    12    3   13 1
    13    3   14 1
    14    3   15 1
    15    4   16 1
    16    4   17 1
    17    5   18 1
    18    5   19 1
    19    5   20 1
