@<TRIPOS>MOLECULE
*****
   56    58     0     0     0
SMALL
USER_CHARGES

@<TRIPOS>ATOM
      1 C1         -1.5780    0.6890    0.4077 C.3       1 UNL1       -0.0879
      2 C2         -0.5306   -1.5910    0.5970 C.3       1 UNL1       -0.0980
      3 C3         -0.5910   -0.4138   -1.6275 C.3       1 UNL1       -0.0978
      4 C4          0.6069    0.4068    1.6234 C.3       1 UNL1       -0.0971
      5 C5          0.5463    1.5842   -0.6012 C.3       1 UNL1       -0.0971
      6 C6          1.5972   -0.6973   -0.4125 C.3       1 UNL1       -0.1108
      7 C7         -1.3729   -0.6652   -0.3147 C.3       1 UNL1       -0.0356
      8 C8         -0.2197    1.3605    0.7260 C.3       1 UNL1       -0.0373
      9 C9          0.8257   -0.9311    0.8974 C.3       1 UNL1        0.1749
     10 C10         0.7657    0.2363   -1.3084 C.3       1 UNL1        0.1751
     11 C11        -2.7267   -1.3125   -0.6206 C.3       1 UNL1       -0.1000
     12 C12        -0.4437    2.6970    1.4395 C.3       1 UNL1       -0.1002
     13 C13         2.9840   -1.2108    2.0974 C.3       1 UNL1        0.0810
     14 C14         1.8603   -3.1829    1.0853 C.3       1 UNL1        0.0824
     15 C15         0.8850   -2.0919    3.0941 C.3       1 UNL1        0.0843
     16 C16         2.8642    1.1191   -2.3052 C.3       1 UNL1        0.0799
     17 C17         0.7052    1.3993   -3.5038 C.3       1 UNL1        0.0861
     18 C18         1.7408   -0.8524   -3.3186 C.3       1 UNL1        0.0819
     19 N1          1.6196   -1.8326    1.7725 N.4       1 UNL1       -0.6038
     20 N2          1.5013    0.4700   -2.5785 N.4       1 UNL1       -0.6037
     21 H1         -2.1858    1.3566   -0.2179 H         1 UNL1        0.0843
     22 H2         -2.1434    0.5338    1.3366 H         1 UNL1        0.0835
     23 H3         -1.0736   -1.7876    1.5313 H         1 UNL1        0.0869
     24 H4         -0.3812   -2.5616    0.1052 H         1 UNL1        0.0696
     25 H5         -0.4424   -1.3632   -2.1593 H         1 UNL1        0.0684
     26 H6         -1.1774    0.2351   -2.2918 H         1 UNL1        0.0877
     27 H7          1.5723    0.8697    1.8680 H         1 UNL1        0.0693
     28 H8          0.0823    0.2426    2.5742 H         1 UNL1        0.0878
     29 H9         -0.0223    2.2654   -1.2484 H         1 UNL1        0.0880
     30 H10         1.5104    2.0689   -0.3973 H         1 UNL1        0.0690
     31 H11         2.5776   -0.2494   -0.2021 H         1 UNL1        0.0712
     32 H12         1.7785   -1.6526   -0.9230 H         1 UNL1        0.0689
     33 H13        -2.5710   -2.2619   -1.1274 H         1 UNL1        0.0547
     34 H14        -3.3096   -0.6544   -1.2605 H         1 UNL1        0.0704
     35 H15        -3.2672   -1.4841    0.3072 H         1 UNL1        0.0704
     36 H16         0.5159    3.1593    1.6579 H         1 UNL1        0.0554
     37 H17        -0.9820    2.5285    2.3690 H         1 UNL1        0.0699
     38 H18        -1.0250    3.3583    0.8014 H         1 UNL1        0.0704
     39 H19         3.5247   -1.9088    2.7391 H         1 UNL1        0.1158
     40 H20         3.5125   -1.0535    1.1553 H         1 UNL1        0.0886
     41 H21         2.8059   -0.2637    2.6104 H         1 UNL1        0.1070
     42 H22         2.4445   -3.8046    1.7662 H         1 UNL1        0.1147
     43 H23         0.8865   -3.6322    0.8812 H         1 UNL1        0.1082
     44 H24         2.4071   -2.9939    0.1596 H         1 UNL1        0.0881
     45 H25         1.5070   -2.7558    3.6972 H         1 UNL1        0.1117
     46 H26         0.7408   -1.1304    3.5906 H         1 UNL1        0.1078
     47 H27        -0.0730   -2.5591    2.8578 H         1 UNL1        0.1074
     48 H28         3.3614    1.2687   -3.2653 H         1 UNL1        0.1152
     49 H29         2.6859    2.0717   -1.8027 H         1 UNL1        0.1081
     50 H30         3.4358    0.4407   -1.6689 H         1 UNL1        0.0885
     51 H31         1.2859    1.5381   -4.4176 H         1 UNL1        0.1114
     52 H32        -0.2521    0.9196   -3.7161 H         1 UNL1        0.1069
     53 H33         0.5620    2.3475   -2.9822 H         1 UNL1        0.1069
     54 H34         2.2815   -0.6264   -4.2395 H         1 UNL1        0.1149
     55 H35         2.3304   -1.4987   -2.6656 H         1 UNL1        0.0884
     56 H36         0.7668   -1.2958   -3.5342 H         1 UNL1        0.1081
@<TRIPOS>BOND
     1    1    7 1
     2    1    8 1
     3    2    7 1
     4    2    9 1
     5    3    7 1
     6    3   10 1
     7    4    8 1
     8    4    9 1
     9    5    8 1
    10    5   10 1
    11    6    9 1
    12    6   10 1
    13    7   11 1
    14    8   12 1
    15    9   19 1
    16   10   20 1
    17   13   19 1
    18   14   19 1
    19   15   19 1
    20   16   20 1
    21   17   20 1
    22   18   20 1
    23    1   21 1
    24    1   22 1
    25    2   23 1
    26    2   24 1
    27    3   25 1
    28    3   26 1
    29    4   27 1
    30    4   28 1
    31    5   29 1
    32    5   30 1
    33    6   31 1
    34    6   32 1
    35   11   33 1
    36   11   34 1
    37   11   35 1
    38   12   36 1
    39   12   37 1
    40   12   38 1
    41   13   39 1
    42   13   40 1
    43   13   41 1
    44   14   42 1
    45   14   43 1
    46   14   44 1
    47   15   45 1
    48   15   46 1
    49   15   47 1
    50   16   48 1
    51   16   49 1
    52   16   50 1
    53   17   51 1
    54   17   52 1
    55   17   53 1
    56   18   54 1
    57   18   55 1
    58   18   56 1
