@<TRIPOS>MOLECULE
*****
   27    27     0     0     0
SMALL
USER_CHARGES

@<TRIPOS>ATOM
      1 C1         -0.2962    0.8865   -0.5713 C.3       1 UNL1       -0.0830
      2 C2         -0.0946    0.6835   -2.0735 C.3       1 UNL1       -0.0827
      3 C3         -1.7013    1.3421   -0.1720 C.3       1 UNL1       -0.0877
      4 C4         -0.0911   -0.7733   -2.5349 C.3       1 UNL1       -0.0856
      5 C5         -2.8300    0.3227   -0.3423 C.3       1 UNL1       -0.0715
      6 C6         -1.1851   -1.6892   -1.9879 C.3       1 UNL1       -0.1139
      7 C7         -3.1803    0.0032   -1.7969 C.3       1 UNL1       -0.1008
      8 C8         -2.6388   -1.3353   -2.3051 C.3       1 UNL1        0.1410
      9 N1         -2.8454   -1.3829   -3.7833 N.4       1 UNL1       -0.8491
     10 H1          0.0009    0.0005    0.0002 H         1 UNL1        0.0472
     11 H2          0.3898    1.6840   -0.2551 H         1 UNL1        0.0691
     12 H3         -0.8118    1.2711   -2.6544 H         1 UNL1        0.0292
     13 H4          0.8869    1.0983   -2.3410 H         1 UNL1        0.0672
     14 H5         -1.6672    1.6194    0.8898 H         1 UNL1        0.0691
     15 H6         -1.9547    2.2625   -0.7132 H         1 UNL1        0.0525
     16 H7         -0.1000   -0.7945   -3.6313 H         1 UNL1        0.0217
     17 H8          0.8726   -1.2124   -2.2431 H         1 UNL1        0.0815
     18 H9         -2.6218   -0.5857    0.2332 H         1 UNL1        0.0555
     19 H10        -3.7225    0.7657    0.1200 H         1 UNL1        0.0704
     20 H11        -0.9906   -2.6972   -2.3815 H         1 UNL1        0.0603
     21 H12        -1.0649   -1.7968   -0.9042 H         1 UNL1        0.1104
     22 H13        -4.2761   -0.0468   -1.8704 H         1 UNL1        0.0586
     23 H14        -2.8947    0.8323   -2.4526 H         1 UNL1        0.0686
     24 H15        -3.2719   -2.1375   -1.9061 H         1 UNL1        0.1015
     25 H16        -2.0768   -1.8824   -4.2355 H         1 UNL1        0.4591
     26 H17        -2.8878   -0.4367   -4.1681 H         1 UNL1        0.4562
     27 H18        -3.7199   -1.8630   -4.0064 H         1 UNL1        0.4550
@<TRIPOS>BOND
     1    1    2 1
     2    1    3 1
     3    2    4 1
     4    3    5 1
     5    4    6 1
     6    5    7 1
     7    6    8 1
     8    7    8 1
     9    8    9 1
    10    1   10 1
    11    1   11 1
    12    2   12 1
    13    2   13 1
    14    3   14 1
    15    3   15 1
    16    4   16 1
    17    4   17 1
    18    5   18 1
    19    5   19 1
    20    6   20 1
    21    6   21 1
    22    7   22 1
    23    7   23 1
    24    8   24 1
    25    9   25 1
    26    9   26 1
    27    9   27 1
