@<TRIPOS>MOLECULE
*****
   21    21     0     0     0
SMALL
USER_CHARGES

@<TRIPOS>ATOM
      1 C1         -0.5747    0.8755   -0.3269 C.3       1 UNL1       -0.0913
      2 C2         -1.9269    0.4191   -0.8673 C.3       1 UNL1       -0.0921
      3 C3         -0.7269    1.8452    0.8415 C.3       1 UNL1       -0.0926
      4 C4         -2.8057   -0.1717    0.2351 C.3       1 UNL1       -0.1100
      5 C5         -1.6003    1.2597    1.9511 C.3       1 UNL1       -0.1105
      6 C6         -2.9508    0.7502    1.4463 C.3       1 UNL1        0.1322
      7 N1         -3.8091    1.9136    1.0788 N.4       1 UNL1       -0.8463
      8 H1         -0.0002    0.0000    0.0004 H         1 UNL1        0.0685
      9 H2          0.0009    1.3520   -1.1284 H         1 UNL1        0.0796
     10 H3         -2.4382    1.2653   -1.3410 H         1 UNL1        0.0305
     11 H4         -1.7724   -0.3315   -1.6510 H         1 UNL1        0.0894
     12 H5          0.2626    2.0870    1.2464 H         1 UNL1        0.0892
     13 H6         -1.1572    2.7879    0.4834 H         1 UNL1        0.0292
     14 H7         -3.7907   -0.4282   -0.1734 H         1 UNL1        0.0670
     15 H8         -2.3580   -1.1165    0.5698 H         1 UNL1        0.1048
     16 H9         -1.0632    0.4209    2.4126 H         1 UNL1        0.1057
     17 H10        -1.7418    2.0048    2.7432 H         1 UNL1        0.0678
     18 H11        -3.4857    0.2346    2.2521 H         1 UNL1        0.1056
     19 H12        -3.2423    2.7581    0.9726 H         1 UNL1        0.4591
     20 H13        -4.5102    2.0845    1.8037 H         1 UNL1        0.4554
     21 H14        -4.2939    1.7369    0.1958 H         1 UNL1        0.4589
@<TRIPOS>BOND
     1    1    2 1
     2    1    3 1
     3    2    4 1
     4    3    5 1
     5    4    6 1
     6    5    6 1
     7    6    7 1
     8    1    8 1
     9    1    9 1
    10    2   10 1
    11    2   11 1
    12    3   12 1
    13    3   13 1
    14    4   14 1
    15    4   15 1
    16    5   16 1
    17    5   17 1
    18    6   18 1
    19    7   19 1
    20    7   20 1
    21    7   21 1
