@<TRIPOS>MOLECULE
*****
   36    36     0     0     0
SMALL
USER_CHARGES

@<TRIPOS>ATOM
      1 C1          2.2624   -2.2584   -2.1875 C.ar      1 UNL1       -0.0985
      2 C2          0.9991   -2.6844   -1.7777 C.ar      1 UNL1       -0.1258
      3 C3          3.1189   -1.6389   -1.2773 C.ar      1 UNL1       -0.1242
      4 C4          0.5920   -2.4908   -0.4576 C.ar      1 UNL1       -0.1099
      5 C5          2.7118   -1.4453    0.0427 C.ar      1 UNL1       -0.1060
      6 C6          1.4484   -1.8712    0.4526 C.ar      1 UNL1       -0.1553
      7 C7         -0.6102   -0.0453    0.9069 C.3       1 UNL1        0.0924
      8 C8          1.3380    0.7777    2.2123 C.3       1 UNL1        0.0873
      9 C9          1.0112   -1.6624    1.8725 C.3       1 UNL1        0.1688
     10 C10         0.3587   -0.7466    4.5575 C.3       1 UNL1       -0.0708
     11 C11        -0.5225   -0.3990    3.3654 C.3       1 UNL1        0.1245
     12 C12        -0.4059   -0.8180    5.8723 C.3       1 UNL1       -0.2805
     13 N1          0.3041   -0.3323    2.0893 N.4       1 UNL1       -0.6083
     14 O1          1.6471   -0.1712    7.2137 O.3       1 UNL1       -0.7465
     15 O2         -0.2385   -1.2687    8.3625 O.2       1 UNL1       -0.7167
     16 O3          1.1804   -2.5591    6.8126 O.2       1 UNL1       -0.7469
     17 S1          0.6617   -1.2513    7.2105 S.o2      1 UNL1        1.4370
     18 H1          2.5797   -2.4105   -3.2151 H         1 UNL1        0.1479
     19 H2          0.3325   -3.1678   -2.4859 H         1 UNL1        0.1487
     20 H3          4.1030   -1.3081   -1.5958 H         1 UNL1        0.1505
     21 H4         -0.3942   -2.8258   -0.1472 H         1 UNL1        0.1378
     22 H5          3.3857   -0.9615    0.7448 H         1 UNL1        0.1428
     23 H6         -1.3388   -0.8555    0.8439 H         1 UNL1        0.0881
     24 H7         -1.1022    0.9119    1.0897 H         1 UNL1        0.0877
     25 H8          0.0087   -0.0033    0.0086 H         1 UNL1        0.0936
     26 H9          1.9774    0.5454    3.0659 H         1 UNL1        0.1168
     27 H10         1.9141    0.8020    1.2853 H         1 UNL1        0.0819
     28 H11         0.8032    1.7168    2.3668 H         1 UNL1        0.0909
     29 H12         0.3140   -2.4448    2.1912 H         1 UNL1        0.1079
     30 H13         1.8667   -1.6790    2.5563 H         1 UNL1        0.1206
     31 H14         0.8326   -1.7171    4.3645 H         1 UNL1        0.0773
     32 H15         1.1759   -0.0194    4.6443 H         1 UNL1        0.0749
     33 H16        -1.0116    0.5725    3.4830 H         1 UNL1        0.0848
     34 H17        -1.2821   -1.1697    3.2045 H         1 UNL1        0.0849
     35 H18        -1.1914   -1.5785    5.8350 H         1 UNL1        0.0714
     36 H19        -0.8552    0.1436    6.1352 H         1 UNL1        0.0712
@<TRIPOS>BOND
     1    1    2 ar
     2    1    3 ar
     3    2    4 ar
     4    3    5 ar
     5    4    6 ar
     6    5    6 ar
     7    6    9 1
     8    7   13 1
     9    8   13 1
    10    9   13 1
    11   10   11 1
    12   10   12 1
    13   11   13 1
    14   12   17 1
    15   14   17 1
    16   15   17 2
    17   16   17 2
    18    1   18 1
    19    2   19 1
    20    3   20 1
    21    4   21 1
    22    5   22 1
    23    7   23 1
    24    7   24 1
    25    7   25 1
    26    8   26 1
    27    8   27 1
    28    8   28 1
    29    9   29 1
    30    9   30 1
    31   10   31 1
    32   10   32 1
    33   11   33 1
    34   11   34 1
    35   12   35 1
    36   12   36 1
