@<TRIPOS>MOLECULE
*****
   30    32     0     0     0
SMALL
USER_CHARGES

@<TRIPOS>ATOM
      1 C1         -0.5125    0.7898   -0.5629 C.3       1 UNL1       -0.0853
      2 C2         -2.7177    1.8984   -1.0224 C.3       1 UNL1       -0.0956
      3 C3         -0.9910    1.7197   -2.8451 C.3       1 UNL1       -0.0963
      4 C4         -2.6069   -0.5841   -0.6775 C.3       1 UNL1       -0.0795
      5 C5         -0.8872   -0.7623   -2.4962 C.3       1 UNL1       -0.1167
      6 C6         -3.0924    0.3427   -2.9633 C.3       1 UNL1       -0.1338
      7 C7         -2.0185    0.7687   -0.2425 C.3       1 UNL1       -0.0564
      8 C8         -0.2861    0.5886   -2.0726 C.3       1 UNL1       -0.0516
      9 C9         -2.4969    1.6920   -2.5312 C.3       1 UNL1        0.1490
     10 C10        -2.3949   -0.7915   -2.1886 C.3       1 UNL1        0.1699
     11 N1         -3.1709    2.7844   -3.2771 N.4       1 UNL1       -0.8520
     12 O1         -2.9435   -2.0462   -2.5654 O.3       1 UNL1       -0.5669
     13 H1         -0.0758    1.7440   -0.2434 H         1 UNL1        0.0598
     14 H2          0.0001    0.0001    0.0001 H         1 UNL1        0.0811
     15 H3         -3.7893    1.8993   -0.7853 H         1 UNL1        0.0669
     16 H4         -2.3158    2.8683   -0.7023 H         1 UNL1        0.0651
     17 H5         -0.5545    2.6857   -2.5608 H         1 UNL1        0.0667
     18 H6         -0.8180    1.5921   -3.9214 H         1 UNL1        0.0648
     19 H7         -2.1403   -1.4034   -0.1152 H         1 UNL1        0.0895
     20 H8         -3.6769   -0.6316   -0.4369 H         1 UNL1        0.0728
     21 H9         -0.7158   -0.9374   -3.5663 H         1 UNL1        0.0551
     22 H10        -0.3808   -1.5865   -1.9773 H         1 UNL1        0.0892
     23 H11        -4.1740    0.3086   -2.7748 H         1 UNL1        0.0809
     24 H12        -2.9712    0.1853   -4.0435 H         1 UNL1        0.0621
     25 H13        -2.1709    0.9114    0.8331 H         1 UNL1        0.0915
     26 H14         0.7872    0.6027   -2.2920 H         1 UNL1        0.0898
     27 H15        -2.4848    3.4387   -3.6672 H         1 UNL1        0.4536
     28 H16        -3.7991    3.3129   -2.6626 H         1 UNL1        0.4557
     29 H17        -3.7274    2.4090   -4.0522 H         1 UNL1        0.4555
     30 H18        -2.7928   -2.1437   -3.5199 H         1 UNL1        0.4150
@<TRIPOS>BOND
     1    1    7 1
     2    1    8 1
     3    2    7 1
     4    2    9 1
     5    3    8 1
     6    3    9 1
     7    4    7 1
     8    4   10 1
     9    5    8 1
    10    5   10 1
    11    6    9 1
    12    6   10 1
    13    9   11 1
    14   10   12 1
    15    1   13 1
    16    1   14 1
    17    2   15 1
    18    2   16 1
    19    3   17 1
    20    3   18 1
    21    4   19 1
    22    4   20 1
    23    5   21 1
    24    5   22 1
    25    6   23 1
    26    6   24 1
    27    7   25 1
    28    8   26 1
    29   11   27 1
    30   11   28 1
    31   11   29 1
    32   12   30 1
